<?xml version="1.0" encoding="UTF-8"?>

<!-- generated on 2024-04-15 13:35:28 by Eclipse SUMO duarouter Version 1.12.0
<configuration xmlns:xsi="http://www.w3.org/2001/XMLSchema-instance" xsi:noNamespaceSchemaLocation="http://sumo.dlr.de/xsd/duarouterConfiguration.xsd">

    <input>
        <net-file value="nets/3x3/network.net.xml"/>
        <route-files value="trips.trips.xml"/>
    </input>

    <output>
        <output-file value="nets/3x3/generated_route.rou.xml"/>
        <alternatives-output value="nets/3x3/generated_route.rou.alt.xml"/>
    </output>

    <time>
        <begin value="0"/>
        <end value="1000"/>
    </time>

    <report>
        <no-warnings value="true"/>
        <ignore-errors value="true"/>
        <no-step-log value="true"/>
    </report>

</configuration>
-->

<routes xmlns:xsi="http://www.w3.org/2001/XMLSchema-instance" xsi:noNamespaceSchemaLocation="http://sumo.dlr.de/xsd/routes_file.xsd">
<vType id="type1" length="5" accel="5" decel="10" />
<vType id="type2" color="1,0,0" length="7" accel="5" decel="10" vClass="emergency" />
    <vehicle id="0" depart="13.0" type="type1">
        <route edges="intersectionCenter___intersectionN intersectionN___intersectionNE intersectionNE___intersectionE intersectionE___intersectionSE intersectionSE___intersectionS intersectionS___intersectionSW"/>
    </vehicle>
    <vehicle id="1" depart="24.0" type="type1">
        <route edges="northLeft___intersectionNW intersectionNW___intersectionN intersectionN___intersectionNE intersectionNE___intersectionE"/>
    </vehicle>
    <vehicle id="2" depart="64.0" type="type1">
        <route edges="intersectionSE___intersectionE intersectionE___intersectionNE intersectionNE___intersectionN intersectionN___intersectionCenter"/>
    </vehicle>
    <vehicle id="3" depart="66.0" type="type1">
        <route edges="intersectionS___intersectionSW intersectionSW___intersectionW intersectionW___intersectionCenter intersectionCenter___intersectionE intersectionE___intersectionSE intersectionSE___intersectionS intersectionS___intersectionCenter"/>
    </vehicle>
    <vehicle id="4" depart="67.0" type="type1">
        <route edges="intersectionCenter___intersectionE intersectionE___intersectionSE intersectionSE___intersectionS intersectionS___intersectionCenter intersectionCenter___intersectionN"/>
    </vehicle>
    <vehicle id="5" depart="74.0" type="type1">
        <route edges="southLeft___intersectionSW intersectionSW___intersectionW intersectionW___intersectionNW intersectionNW___westTop"/>
    </vehicle>
    <vehicle id="6" depart="87.0" type="type1">
        <route edges="northLeft___intersectionNW intersectionNW___intersectionW intersectionW___intersectionCenter intersectionCenter___intersectionE"/>
    </vehicle>
    <vehicle id="7" depart="107.0" type="type1">
        <route edges="intersectionN___intersectionNW intersectionNW___intersectionW intersectionW___intersectionCenter intersectionCenter___intersectionS intersectionS___intersectionSW intersectionSW___intersectionW"/>
    </vehicle>
    <vehicle id="8" depart="114.0" type="type1">
        <route edges="intersectionE___intersectionNE intersectionNE___intersectionN intersectionN___intersectionNW intersectionNW___intersectionW intersectionW___intersectionSW"/>
    </vehicle>
    <vehicle id="9" depart="116.0" type="type1">
        <route edges="southRight___intersectionSE intersectionSE___intersectionE intersectionE___intersectionCenter intersectionCenter___intersectionN"/>
    </vehicle>
    <vehicle id="10" depart="122.0" type="type1">
        <route edges="eastBottom___intersectionSE intersectionSE___intersectionS intersectionS___intersectionCenter intersectionCenter___intersectionN intersectionN___northMiddle"/>
    </vehicle>
    <vehicle id="11" depart="126.0" type="type1">
        <route edges="westBottom___intersectionSW intersectionSW___intersectionS intersectionS___intersectionCenter intersectionCenter___intersectionN intersectionN___intersectionNW intersectionNW___intersectionW"/>
    </vehicle>
    <vehicle id="12" depart="135.0" type="type1">
        <route edges="intersectionE___intersectionCenter intersectionCenter___intersectionN intersectionN___intersectionNW intersectionNW___westTop"/>
    </vehicle>
    <vehicle id="13" depart="135.0" type="type1">
        <route edges="eastMiddle___intersectionE intersectionE___intersectionSE"/>
    </vehicle>
    <vehicle id="14" depart="138.0" type="type1">
        <route edges="intersectionN___intersectionNE"/>
    </vehicle>
    <vehicle id="15" depart="141.0" type="type2">
        <route edges="intersectionE___intersectionNE intersectionNE___eastTop"/>
    </vehicle>
    <vehicle id="16" depart="142.0" type="type2">
        <route edges="intersectionE___intersectionCenter intersectionCenter___intersectionW intersectionW___intersectionNW intersectionNW___intersectionN intersectionN___intersectionCenter"/>
    </vehicle>
    <vehicle id="17" depart="143.0" type="type1">
        <route edges="intersectionNE___intersectionE intersectionE___intersectionSE intersectionSE___intersectionS intersectionS___intersectionCenter intersectionCenter___intersectionE"/>
    </vehicle>
    <vehicle id="18" depart="148.0" type="type1">
        <route edges="southLeft___intersectionSW intersectionSW___intersectionS intersectionS___intersectionSE intersectionSE___eastBottom"/>
    </vehicle>
    <vehicle id="19" depart="150.0" type="type1">
        <route edges="intersectionS___intersectionSW intersectionSW___intersectionW intersectionW___intersectionCenter intersectionCenter___intersectionE intersectionE___intersectionNE"/>
    </vehicle>
    <vehicle id="20" depart="152.0" type="type1">
        <route edges="westTop___intersectionNW intersectionNW___intersectionN intersectionN___intersectionCenter intersectionCenter___intersectionS intersectionS___intersectionSW"/>
    </vehicle>
    <vehicle id="21" depart="155.0" type="type1">
        <route edges="intersectionCenter___intersectionN intersectionN___intersectionNE intersectionNE___northRight"/>
    </vehicle>
    <vehicle id="22" depart="156.0" type="type1">
        <route edges="intersectionW___intersectionNW intersectionNW___intersectionN intersectionN___intersectionCenter intersectionCenter___intersectionS intersectionS___intersectionSW intersectionSW___intersectionW"/>
    </vehicle>
    <vehicle id="23" depart="163.0" type="type1">
        <route edges="westBottom___intersectionSW intersectionSW___intersectionW intersectionW___intersectionNW intersectionNW___westTop"/>
    </vehicle>
    <vehicle id="24" depart="163.0" type="type1">
        <route edges="northRight___intersectionNE intersectionNE___intersectionE intersectionE___intersectionCenter intersectionCenter___intersectionW intersectionW___intersectionSW intersectionSW___intersectionS"/>
    </vehicle>
    <vehicle id="25" depart="164.0" type="type1">
        <route edges="intersectionNE___intersectionE intersectionE___intersectionCenter intersectionCenter___intersectionS intersectionS___intersectionSE intersectionSE___intersectionE"/>
    </vehicle>
    <vehicle id="26" depart="165.0" type="type1">
        <route edges="southMiddle___intersectionS intersectionS___intersectionSW"/>
    </vehicle>
    <vehicle id="27" depart="168.0" type="type1">
        <route edges="intersectionSE___intersectionS intersectionS___intersectionSW intersectionSW___intersectionW intersectionW___intersectionCenter intersectionCenter___intersectionS intersectionS___intersectionSE intersectionSE___intersectionE"/>
    </vehicle>
    <vehicle id="28" depart="170.0" type="type1">
        <route edges="eastMiddle___intersectionE intersectionE___intersectionNE intersectionNE___eastTop"/>
    </vehicle>
    <vehicle id="29" depart="170.0" type="type1">
        <route edges="northMiddle___intersectionN intersectionN___intersectionNW intersectionNW___northLeft"/>
    </vehicle>
    <vehicle id="30" depart="177.0" type="type2">
        <route edges="intersectionCenter___intersectionW intersectionW___intersectionNW intersectionNW___intersectionN intersectionN___northMiddle"/>
    </vehicle>
    <vehicle id="31" depart="180.0" type="type2">
        <route edges="intersectionW___intersectionNW intersectionNW___intersectionN intersectionN___intersectionCenter intersectionCenter___intersectionW intersectionW___intersectionSW intersectionSW___intersectionS"/>
    </vehicle>
    <vehicle id="32" depart="183.0" type="type1">
        <route edges="intersectionNW___intersectionW intersectionW___intersectionCenter intersectionCenter___intersectionN intersectionN___intersectionNW intersectionNW___westTop"/>
    </vehicle>
    <vehicle id="33" depart="194.0" type="type1">
        <route edges="intersectionSE___intersectionS intersectionS___intersectionCenter"/>
    </vehicle>
    <vehicle id="34" depart="196.0" type="type1">
        <route edges="intersectionSE___intersectionS intersectionS___intersectionSW intersectionSW___intersectionW intersectionW___intersectionNW intersectionNW___northLeft"/>
    </vehicle>
    <vehicle id="35" depart="196.0" type="type1">
        <route edges="intersectionSE___intersectionE intersectionE___intersectionCenter intersectionCenter___intersectionN"/>
    </vehicle>
    <vehicle id="36" depart="197.0" type="type2">
        <route edges="eastMiddle___intersectionE intersectionE___intersectionCenter intersectionCenter___intersectionS intersectionS___intersectionSW intersectionSW___intersectionW"/>
    </vehicle>
    <vehicle id="37" depart="200.0" type="type1">
        <route edges="westTop___intersectionNW intersectionNW___intersectionN intersectionN___intersectionCenter intersectionCenter___intersectionS intersectionS___intersectionSE intersectionSE___intersectionE"/>
    </vehicle>
    <vehicle id="38" depart="200.0" type="type1">
        <route edges="intersectionN___intersectionCenter intersectionCenter___intersectionE intersectionE___intersectionNE"/>
    </vehicle>
    <vehicle id="39" depart="201.0" type="type1">
        <route edges="intersectionSE___intersectionS intersectionS___intersectionCenter intersectionCenter___intersectionW intersectionW___westMiddle"/>
    </vehicle>
    <vehicle id="40" depart="201.0" type="type1">
        <route edges="northLeft___intersectionNW intersectionNW___intersectionN intersectionN___northMiddle"/>
    </vehicle>
    <vehicle id="41" depart="203.0" type="type1">
        <route edges="southLeft___intersectionSW intersectionSW___intersectionW intersectionW___intersectionNW intersectionNW___intersectionN intersectionN___intersectionNE intersectionNE___eastTop"/>
    </vehicle>
    <vehicle id="42" depart="204.0" type="type1">
        <route edges="intersectionSE___intersectionS intersectionS___intersectionCenter intersectionCenter___intersectionW intersectionW___intersectionSW"/>
    </vehicle>
    <vehicle id="43" depart="211.0" type="type1">
        <route edges="intersectionSW___intersectionW intersectionW___intersectionNW intersectionNW___intersectionN intersectionN___intersectionCenter"/>
    </vehicle>
    <vehicle id="44" depart="213.0" type="type1">
        <route edges="intersectionE___intersectionSE intersectionSE___intersectionS intersectionS___intersectionCenter intersectionCenter___intersectionN intersectionN___northMiddle"/>
    </vehicle>
    <vehicle id="45" depart="213.0" type="type1">
        <route edges="westMiddle___intersectionW intersectionW___intersectionCenter intersectionCenter___intersectionE"/>
    </vehicle>
    <vehicle id="46" depart="218.0" type="type2">
        <route edges="northMiddle___intersectionN intersectionN___intersectionCenter intersectionCenter___intersectionS intersectionS___intersectionSE"/>
    </vehicle>
    <vehicle id="47" depart="218.0" type="type1">
        <route edges="southMiddle___intersectionS intersectionS___intersectionSW intersectionSW___southLeft"/>
    </vehicle>
    <vehicle id="48" depart="225.0" type="type1">
        <route edges="northRight___intersectionNE intersectionNE___intersectionN intersectionN___intersectionNW"/>
    </vehicle>
    <vehicle id="49" depart="233.0" type="type1">
        <route edges="intersectionSW___intersectionW intersectionW___intersectionNW intersectionNW___westTop"/>
    </vehicle>
    <vehicle id="50" depart="240.0" type="type1">
        <route edges="eastTop___intersectionNE intersectionNE___intersectionN intersectionN___intersectionCenter intersectionCenter___intersectionS intersectionS___southMiddle"/>
    </vehicle>
    <vehicle id="51" depart="242.0" type="type1">
        <route edges="intersectionSW___intersectionW intersectionW___intersectionCenter intersectionCenter___intersectionE intersectionE___intersectionSE"/>
    </vehicle>
    <vehicle id="52" depart="253.0" type="type1">
        <route edges="intersectionSE___intersectionS intersectionS___intersectionCenter intersectionCenter___intersectionN intersectionN___intersectionNE"/>
    </vehicle>
    <vehicle id="53" depart="256.0" type="type1">
        <route edges="intersectionNW___intersectionN"/>
    </vehicle>
    <vehicle id="54" depart="257.0" type="type1">
        <route edges="intersectionSW___intersectionS intersectionS___intersectionCenter intersectionCenter___intersectionE intersectionE___intersectionSE intersectionSE___intersectionS"/>
    </vehicle>
    <vehicle id="55" depart="266.0" type="type1">
        <route edges="intersectionS___intersectionSE intersectionSE___intersectionE intersectionE___intersectionNE intersectionNE___intersectionN intersectionN___intersectionCenter"/>
    </vehicle>
    <vehicle id="56" depart="272.0" type="type1">
        <route edges="eastMiddle___intersectionE intersectionE___intersectionNE intersectionNE___eastTop"/>
    </vehicle>
    <vehicle id="57" depart="280.0" type="type1">
        <route edges="intersectionCenter___intersectionW intersectionW___intersectionSW intersectionSW___intersectionS intersectionS___intersectionSE intersectionSE___intersectionE"/>
    </vehicle>
    <vehicle id="58" depart="281.0" type="type1">
        <route edges="southLeft___intersectionSW intersectionSW___intersectionS intersectionS___intersectionCenter"/>
    </vehicle>
    <vehicle id="59" depart="282.0" type="type1">
        <route edges="northMiddle___intersectionN intersectionN___intersectionCenter intersectionCenter___intersectionS intersectionS___intersectionSE"/>
    </vehicle>
    <vehicle id="60" depart="288.0" type="type1">
        <route edges="intersectionE___intersectionSE intersectionSE___intersectionS intersectionS___intersectionSW"/>
    </vehicle>
    <vehicle id="61" depart="291.0" type="type1">
        <route edges="intersectionW___intersectionCenter intersectionCenter___intersectionS"/>
    </vehicle>
    <vehicle id="62" depart="291.0" type="type1">
        <route edges="eastBottom___intersectionSE intersectionSE___intersectionS intersectionS___intersectionCenter intersectionCenter___intersectionE"/>
    </vehicle>
    <vehicle id="63" depart="292.0" type="type2">
        <route edges="northLeft___intersectionNW intersectionNW___intersectionN intersectionN___intersectionNE intersectionNE___eastTop"/>
    </vehicle>
    <vehicle id="64" depart="294.0" type="type1">
        <route edges="intersectionCenter___intersectionE intersectionE___intersectionSE intersectionSE___intersectionS"/>
    </vehicle>
    <vehicle id="65" depart="298.0" type="type1">
        <route edges="intersectionNW___intersectionN intersectionN___intersectionCenter intersectionCenter___intersectionS"/>
    </vehicle>
    <vehicle id="66" depart="301.0" type="type1">
        <route edges="intersectionCenter___intersectionS intersectionS___intersectionSW intersectionSW___intersectionW intersectionW___intersectionCenter intersectionCenter___intersectionN intersectionN___intersectionNW"/>
    </vehicle>
    <vehicle id="67" depart="310.0" type="type1">
        <route edges="intersectionCenter___intersectionW intersectionW___intersectionNW intersectionNW___intersectionN intersectionN___intersectionNE intersectionNE___intersectionE"/>
    </vehicle>
    <vehicle id="68" depart="312.0" type="type1">
        <route edges="intersectionW___intersectionNW intersectionNW___intersectionN intersectionN___intersectionCenter"/>
    </vehicle>
    <vehicle id="69" depart="313.0" type="type1">
        <route edges="intersectionNE___intersectionN intersectionN___intersectionCenter intersectionCenter___intersectionW intersectionW___intersectionNW intersectionNW___intersectionN intersectionN___intersectionNE"/>
    </vehicle>
    <vehicle id="70" depart="314.0" type="type1">
        <route edges="eastBottom___intersectionSE intersectionSE___intersectionS intersectionS___intersectionCenter intersectionCenter___intersectionN intersectionN___intersectionNW intersectionNW___intersectionW"/>
    </vehicle>
    <vehicle id="71" depart="314.0" type="type1">
        <route edges="intersectionN___intersectionNE intersectionNE___intersectionE intersectionE___intersectionSE intersectionSE___intersectionS intersectionS___intersectionCenter intersectionCenter___intersectionE intersectionE___intersectionNE"/>
    </vehicle>
    <vehicle id="72" depart="315.0" type="type1">
        <route edges="intersectionCenter___intersectionE intersectionE___intersectionSE intersectionSE___intersectionS intersectionS___intersectionSW intersectionSW___intersectionW intersectionW___intersectionCenter"/>
    </vehicle>
    <vehicle id="73" depart="315.0" type="type1">
        <route edges="intersectionSE___intersectionS intersectionS___intersectionCenter intersectionCenter___intersectionE intersectionE___intersectionSE"/>
    </vehicle>
    <vehicle id="74" depart="318.0" type="type1">
        <route edges="intersectionS___intersectionCenter intersectionCenter___intersectionW intersectionW___intersectionSW intersectionSW___intersectionS intersectionS___intersectionSE"/>
    </vehicle>
    <vehicle id="75" depart="319.0" type="type1">
        <route edges="eastBottom___intersectionSE intersectionSE___intersectionS intersectionS___intersectionCenter intersectionCenter___intersectionE"/>
    </vehicle>
    <vehicle id="76" depart="323.0" type="type1">
        <route edges="intersectionCenter___intersectionS intersectionS___intersectionSW intersectionSW___intersectionW"/>
    </vehicle>
    <vehicle id="77" depart="324.0" type="type1">
        <route edges="intersectionCenter___intersectionS intersectionS___intersectionSW intersectionSW___intersectionW"/>
    </vehicle>
    <vehicle id="78" depart="325.0" type="type1">
        <route edges="intersectionW___intersectionCenter intersectionCenter___intersectionN intersectionN___northMiddle"/>
    </vehicle>
    <vehicle id="79" depart="328.0" type="type1">
        <route edges="intersectionE___intersectionCenter intersectionCenter___intersectionW intersectionW___westMiddle"/>
    </vehicle>
    <vehicle id="80" depart="328.0" type="type1">
        <route edges="northMiddle___intersectionN intersectionN___intersectionNW"/>
    </vehicle>
    <vehicle id="81" depart="337.0" type="type1">
        <route edges="intersectionE___intersectionNE intersectionNE___intersectionN intersectionN___intersectionCenter intersectionCenter___intersectionE intersectionE___intersectionSE intersectionSE___southRight"/>
    </vehicle>
    <vehicle id="82" depart="338.0" type="type1">
        <route edges="intersectionN___intersectionCenter intersectionCenter___intersectionS intersectionS___intersectionSE intersectionSE___eastBottom"/>
    </vehicle>
    <vehicle id="83" depart="341.0" type="type1">
        <route edges="intersectionNE___intersectionN intersectionN___intersectionCenter intersectionCenter___intersectionE intersectionE___intersectionSE intersectionSE___intersectionS"/>
    </vehicle>
    <vehicle id="84" depart="343.0" type="type2">
        <route edges="eastTop___intersectionNE intersectionNE___intersectionN"/>
    </vehicle>
    <vehicle id="85" depart="346.0" type="type1">
        <route edges="westMiddle___intersectionW intersectionW___intersectionCenter intersectionCenter___intersectionS intersectionS___southMiddle"/>
    </vehicle>
    <vehicle id="86" depart="347.0" type="type1">
        <route edges="intersectionNE___intersectionN intersectionN___intersectionCenter intersectionCenter___intersectionS intersectionS___intersectionSW"/>
    </vehicle>
    <vehicle id="87" depart="348.0" type="type1">
        <route edges="intersectionNE___intersectionN intersectionN___intersectionCenter intersectionCenter___intersectionW intersectionW___intersectionNW"/>
    </vehicle>
    <vehicle id="88" depart="350.0" type="type1">
        <route edges="intersectionW___intersectionSW intersectionSW___intersectionS intersectionS___intersectionCenter intersectionCenter___intersectionW intersectionW___intersectionNW intersectionNW___northLeft"/>
    </vehicle>
    <vehicle id="89" depart="354.0" type="type1">
        <route edges="intersectionE___intersectionSE intersectionSE___intersectionS intersectionS___intersectionCenter intersectionCenter___intersectionE"/>
    </vehicle>
    <vehicle id="90" depart="358.0" type="type1">
        <route edges="southMiddle___intersectionS intersectionS___intersectionCenter intersectionCenter___intersectionN"/>
    </vehicle>
    <vehicle id="91" depart="363.0" type="type1">
        <route edges="northRight___intersectionNE intersectionNE___intersectionE intersectionE___intersectionCenter intersectionCenter___intersectionW intersectionW___intersectionSW"/>
    </vehicle>
    <vehicle id="92" depart="374.0" type="type2">
        <route edges="intersectionSW___intersectionW intersectionW___intersectionCenter intersectionCenter___intersectionE intersectionE___intersectionNE"/>
    </vehicle>
    <vehicle id="93" depart="376.0" type="type1">
        <route edges="southMiddle___intersectionS intersectionS___intersectionCenter intersectionCenter___intersectionW intersectionW___westMiddle"/>
    </vehicle>
    <vehicle id="94" depart="377.0" type="type2">
        <route edges="intersectionW___intersectionNW intersectionNW___intersectionN intersectionN___intersectionNE intersectionNE___intersectionE intersectionE___intersectionCenter intersectionCenter___intersectionN intersectionN___intersectionNW"/>
    </vehicle>
    <vehicle id="95" depart="386.0" type="type2">
        <route edges="intersectionNW___intersectionW intersectionW___intersectionCenter intersectionCenter___intersectionS intersectionS___intersectionSW intersectionSW___intersectionW intersectionW___intersectionNW intersectionNW___intersectionN"/>
    </vehicle>
    <vehicle id="96" depart="387.0" type="type1">
        <route edges="intersectionE___intersectionCenter intersectionCenter___intersectionW intersectionW___intersectionSW intersectionSW___intersectionS"/>
    </vehicle>
    <vehicle id="97" depart="394.0" type="type1">
        <route edges="intersectionN___intersectionNE intersectionNE___intersectionE intersectionE___intersectionSE intersectionSE___intersectionS intersectionS___intersectionCenter intersectionCenter___intersectionE intersectionE___intersectionNE"/>
    </vehicle>
    <vehicle id="98" depart="394.0" type="type1">
        <route edges="intersectionCenter___intersectionE intersectionE___intersectionSE intersectionSE___southRight"/>
    </vehicle>
    <vehicle id="99" depart="396.0" type="type1">
        <route edges="intersectionNE___intersectionE intersectionE___intersectionCenter intersectionCenter___intersectionN intersectionN___intersectionNE"/>
    </vehicle>
    <vehicle id="100" depart="397.0" type="type2">
        <route edges="intersectionNE___intersectionN intersectionN___intersectionCenter intersectionCenter___intersectionS intersectionS___southMiddle"/>
    </vehicle>
    <vehicle id="101" depart="403.0" type="type1">
        <route edges="southRight___intersectionSE intersectionSE___intersectionS intersectionS___intersectionCenter intersectionCenter___intersectionE"/>
    </vehicle>
    <vehicle id="102" depart="405.0" type="type1">
        <route edges="intersectionE___intersectionCenter intersectionCenter___intersectionN intersectionN___intersectionNE intersectionNE___northRight"/>
    </vehicle>
    <vehicle id="103" depart="405.0" type="type1">
        <route edges="westTop___intersectionNW intersectionNW___intersectionW intersectionW___intersectionSW intersectionSW___intersectionS intersectionS___intersectionCenter"/>
    </vehicle>
    <vehicle id="104" depart="406.0" type="type2">
        <route edges="intersectionNW___intersectionN intersectionN___intersectionNE intersectionNE___intersectionE intersectionE___intersectionSE"/>
    </vehicle>
    <vehicle id="105" depart="408.0" type="type1">
        <route edges="intersectionW___intersectionCenter intersectionCenter___intersectionS intersectionS___intersectionSW"/>
    </vehicle>
    <vehicle id="106" depart="408.0" type="type2">
        <route edges="westBottom___intersectionSW intersectionSW___intersectionW intersectionW___intersectionNW intersectionNW___intersectionN"/>
    </vehicle>
    <vehicle id="107" depart="411.0" type="type1">
        <route edges="southMiddle___intersectionS intersectionS___intersectionCenter intersectionCenter___intersectionW intersectionW___intersectionSW intersectionSW___intersectionS"/>
    </vehicle>
    <vehicle id="108" depart="411.0" type="type1">
        <route edges="intersectionSE___intersectionE intersectionE___intersectionCenter intersectionCenter___intersectionW intersectionW___westMiddle"/>
    </vehicle>
    <vehicle id="109" depart="416.0" type="type1">
        <route edges="intersectionE___intersectionNE intersectionNE___intersectionN intersectionN___intersectionNW intersectionNW___intersectionW intersectionW___intersectionSW intersectionSW___southLeft"/>
    </vehicle>
    <vehicle id="110" depart="417.0" type="type1">
        <route edges="intersectionCenter___intersectionE intersectionE___intersectionNE"/>
    </vehicle>
    <vehicle id="111" depart="419.0" type="type1">
        <route edges="southRight___intersectionSE intersectionSE___intersectionS intersectionS___intersectionCenter intersectionCenter___intersectionE intersectionE___intersectionSE"/>
    </vehicle>
    <vehicle id="112" depart="428.0" type="type1">
        <route edges="northLeft___intersectionNW intersectionNW___intersectionW intersectionW___intersectionSW intersectionSW___intersectionS intersectionS___intersectionSE intersectionSE___intersectionE"/>
    </vehicle>
    <vehicle id="113" depart="431.0" type="type1">
        <route edges="southLeft___intersectionSW intersectionSW___intersectionS intersectionS___intersectionCenter intersectionCenter___intersectionN intersectionN___intersectionNW intersectionNW___intersectionW"/>
    </vehicle>
    <vehicle id="114" depart="432.0" type="type1">
        <route edges="intersectionNW___intersectionN intersectionN___intersectionCenter intersectionCenter___intersectionE intersectionE___intersectionNE intersectionNE___intersectionN"/>
    </vehicle>
    <vehicle id="115" depart="437.0" type="type1">
        <route edges="southMiddle___intersectionS intersectionS___intersectionSE intersectionSE___intersectionE"/>
    </vehicle>
    <vehicle id="116" depart="437.0" type="type1">
        <route edges="westMiddle___intersectionW intersectionW___intersectionCenter intersectionCenter___intersectionS intersectionS___southMiddle"/>
    </vehicle>
    <vehicle id="117" depart="438.0" type="type1">
        <route edges="intersectionCenter___intersectionN intersectionN___northMiddle"/>
    </vehicle>
    <vehicle id="118" depart="438.0" type="type1">
        <route edges="intersectionCenter___intersectionE intersectionE___intersectionSE intersectionSE___intersectionS intersectionS___intersectionCenter intersectionCenter___intersectionN"/>
    </vehicle>
    <vehicle id="119" depart="440.0" type="type1">
        <route edges="eastTop___intersectionNE intersectionNE___intersectionN intersectionN___intersectionCenter intersectionCenter___intersectionS intersectionS___southMiddle"/>
    </vehicle>
    <vehicle id="120" depart="441.0" type="type1">
        <route edges="northMiddle___intersectionN intersectionN___intersectionCenter intersectionCenter___intersectionS intersectionS___intersectionSE"/>
    </vehicle>
    <vehicle id="121" depart="441.0" type="type1">
        <route edges="intersectionNW___intersectionN intersectionN___intersectionNE intersectionNE___intersectionE intersectionE___intersectionSE intersectionSE___intersectionS"/>
    </vehicle>
    <vehicle id="122" depart="448.0" type="type1">
        <route edges="northMiddle___intersectionN intersectionN___intersectionNW intersectionNW___intersectionW"/>
    </vehicle>
    <vehicle id="123" depart="448.0" type="type1">
        <route edges="intersectionSW___intersectionW intersectionW___intersectionNW intersectionNW___intersectionN intersectionN___intersectionNE intersectionNE___eastTop"/>
    </vehicle>
    <vehicle id="124" depart="450.0" type="type1">
        <route edges="eastTop___intersectionNE intersectionNE___intersectionE"/>
    </vehicle>
    <vehicle id="125" depart="451.0" type="type2">
        <route edges="southRight___intersectionSE intersectionSE___eastBottom"/>
    </vehicle>
    <vehicle id="126" depart="452.0" type="type1">
        <route edges="westBottom___intersectionSW intersectionSW___intersectionW intersectionW___intersectionNW intersectionNW___intersectionN intersectionN___intersectionCenter"/>
    </vehicle>
    <vehicle id="127" depart="456.0" type="type2">
        <route edges="intersectionE___intersectionSE intersectionSE___intersectionS intersectionS___intersectionCenter"/>
    </vehicle>
    <vehicle id="128" depart="457.0" type="type2">
        <route edges="northRight___intersectionNE intersectionNE___intersectionN intersectionN___intersectionCenter intersectionCenter___intersectionE"/>
    </vehicle>
    <vehicle id="129" depart="458.0" type="type1">