<?xml version="1.0" encoding="UTF-8"?>

<!-- generated on 2024-03-18 13:35:05 by Eclipse SUMO duarouter Version 1.12.0
<configuration xmlns:xsi="http://www.w3.org/2001/XMLSchema-instance" xsi:noNamespaceSchemaLocation="http://sumo.dlr.de/xsd/duarouterConfiguration.xsd">

    <input>
        <net-file value="nets/3x3/network.net.xml"/>
        <route-files value="trips.trips.xml"/>
    </input>

    <output>
        <output-file value="nets/3x3/generated_route.rou.xml"/>
        <alternatives-output value="nets/3x3/generated_route.rou.alt.xml"/>
    </output>

    <time>
        <begin value="0"/>
        <end value="1000"/>
    </time>

    <report>
        <no-warnings value="true"/>
        <ignore-errors value="true"/>
        <no-step-log value="true"/>
    </report>

</configuration>
-->

<routes xmlns:xsi="http://www.w3.org/2001/XMLSchema-instance" xsi:noNamespaceSchemaLocation="http://sumo.dlr.de/xsd/routes_file.xsd">
<vType id="type1" length="5" accel="5" decel="10" />
<vType id="type2" color="1,0,0" length="7" accel="5" decel="10" vClass="emergency" />
    <vehicle id="0" depart="57.0" type="type1">
        <route edges="eastMiddle___intersectionE intersectionE___intersectionCenter intersectionCenter___intersectionS intersectionS___intersectionSW intersectionSW___intersectionW"/>
    </vehicle>
    <vehicle id="1" depart="86.0" type="type1">
        <route edges="intersectionCenter___intersectionS intersectionS___intersectionSW intersectionSW___intersectionW intersectionW___intersectionNW intersectionNW___intersectionN intersectionN___intersectionCenter"/>
    </vehicle>
    <vehicle id="2" depart="86.0" type="type1">
        <route edges="intersectionW___intersectionCenter intersectionCenter___intersectionE intersectionE___intersectionSE intersectionSE___intersectionS intersectionS___intersectionCenter"/>
    </vehicle>
    <vehicle id="3" depart="89.0" type="type1">
        <route edges="intersectionN___intersectionNW intersectionNW___intersectionW intersectionW___intersectionCenter intersectionCenter___intersectionN intersectionN___intersectionNE"/>
    </vehicle>
    <vehicle id="4" depart="90.0" type="type2">
        <route edges="eastBottom___intersectionSE intersectionSE___intersectionS intersectionS___intersectionSW intersectionSW___intersectionW intersectionW___intersectionNW intersectionNW___westTop"/>
    </vehicle>
    <vehicle id="5" depart="103.0" type="type1">
        <route edges="intersectionNW___intersectionW intersectionW___intersectionCenter intersectionCenter___intersectionS intersectionS___intersectionSW"/>
    </vehicle>
    <vehicle id="6" depart="109.0" type="type2">
        <route edges="intersectionSW___intersectionS intersectionS___intersectionCenter intersectionCenter___intersectionW intersectionW___intersectionSW intersectionSW___westBottom"/>
    </vehicle>
    <vehicle id="7" depart="113.0" type="type1">
        <route edges="intersectionN___intersectionNE intersectionNE___intersectionE intersectionE___intersectionSE intersectionSE___intersectionS intersectionS___intersectionCenter intersectionCenter___intersectionE intersectionE___intersectionNE"/>
    </vehicle>
    <vehicle id="8" depart="115.0" type="type1">
        <route edges="southLeft___intersectionSW intersectionSW___intersectionS intersectionS___intersectionSE"/>
    </vehicle>
    <vehicle id="9" depart="117.0" type="type1">
        <route edges="intersectionNW___intersectionW intersectionW___intersectionSW intersectionSW___intersectionS intersectionS___intersectionCenter intersectionCenter___intersectionW"/>
    </vehicle>
    <vehicle id="10" depart="126.0" type="type1">
        <route edges="intersectionSE___intersectionS intersectionS___intersectionCenter intersectionCenter___intersectionN intersectionN___intersectionNE"/>
    </vehicle>
    <vehicle id="11" depart="137.0" type="type1">
        <route edges="northLeft___intersectionNW intersectionNW___intersectionW intersectionW___intersectionSW intersectionSW___intersectionS intersectionS___intersectionSE intersectionSE___intersectionE"/>
    </vehicle>
    <vehicle id="12" depart="143.0" type="type1">
        <route edges="intersectionSE___intersectionS intersectionS___intersectionCenter intersectionCenter___intersectionE intersectionE___intersectionSE intersectionSE___eastBottom"/>
    </vehicle>
    <vehicle id="13" depart="145.0" type="type1">
        <route edges="intersectionNW___intersectionW intersectionW___intersectionCenter intersectionCenter___intersectionN"/>
    </vehicle>
    <vehicle id="14" depart="150.0" type="type1">
        <route edges="eastTop___intersectionNE intersectionNE___intersectionN intersectionN___intersectionCenter intersectionCenter___intersectionW intersectionW___intersectionNW"/>
    </vehicle>
    <vehicle id="15" depart="153.0" type="type1">
        <route edges="southLeft___intersectionSW intersectionSW___intersectionW intersectionW___intersectionCenter intersectionCenter___intersectionE intersectionE___intersectionNE intersectionNE___intersectionN"/>
    </vehicle>
    <vehicle id="16" depart="161.0" type="type1">
        <route edges="southMiddle___intersectionS intersectionS___intersectionCenter intersectionCenter___intersectionN intersectionN___intersectionNW"/>
    </vehicle>
    <vehicle id="17" depart="180.0" type="type1">
        <route edges="intersectionCenter___intersectionE intersectionE___intersectionSE intersectionSE___intersectionS intersectionS___intersectionSW"/>
    </vehicle>
    <vehicle id="18" depart="185.0" type="type2">
        <route edges="intersectionS___intersectionCenter intersectionCenter___intersectionW intersectionW___intersectionNW"/>
    </vehicle>
    <vehicle id="19" depart="188.0" type="type1">
        <route edges="intersectionW___intersectionCenter intersectionCenter___intersectionN intersectionN___intersectionNE intersectionNE___intersectionE intersectionE___intersectionCenter intersectionCenter___intersectionW"/>
    </vehicle>
    <vehicle id="20" depart="192.0" type="type1">
        <route edges="intersectionS___intersectionSE intersectionSE___intersectionE intersectionE___intersectionCenter intersectionCenter___intersectionW intersectionW___intersectionSW intersectionSW___intersectionS intersectionS___intersectionCenter"/>
    </vehicle>
    <vehicle id="21" depart="195.0" type="type1">
        <route edges="southRight___intersectionSE intersectionSE___intersectionE intersectionE___intersectionNE intersectionNE___northRight"/>
    </vehicle>
    <vehicle id="22" depart="195.0" type="type1">
        <route edges="intersectionSW___intersectionS intersectionS___intersectionCenter intersectionCenter___intersectionE intersectionE___intersectionSE intersectionSE___intersectionS intersectionS___intersectionSW intersectionSW___intersectionW"/>
    </vehicle>
    <vehicle id="23" depart="196.0" type="type1">
        <route edges="intersectionCenter___intersectionW intersectionW___intersectionNW intersectionNW___intersectionN intersectionN___intersectionCenter intersectionCenter___intersectionS intersectionS___intersectionSW"/>
    </vehicle>
    <vehicle id="24" depart="206.0" type="type1">
        <route edges="northMiddle___intersectionN intersectionN___intersectionNE intersectionNE___intersectionE intersectionE___intersectionCenter intersectionCenter___intersectionN"/>
    </vehicle>
    <vehicle id="25" depart="210.0" type="type1">
        <route edges="intersectionS___intersectionCenter intersectionCenter___intersectionN intersectionN___intersectionNW intersectionNW___intersectionW"/>
    </vehicle>
    <vehicle id="26" depart="213.0" type="type1">
        <route edges="intersectionCenter___intersectionW intersectionW___intersectionSW intersectionSW___intersectionS intersectionS___intersectionSE intersectionSE___intersectionE"/>
    </vehicle>
    <vehicle id="27" depart="213.0" type="type1">
        <route edges="westMiddle___intersectionW intersectionW___intersectionCenter intersectionCenter___intersectionN intersectionN___northMiddle"/>
    </vehicle>
    <vehicle id="28" depart="216.0" type="type1">
        <route edges="intersectionCenter___intersectionN intersectionN___intersectionNE"/>
    </vehicle>
    <vehicle id="29" depart="217.0" type="type2">
        <route edges="northMiddle___intersectionN intersectionN___intersectionNW intersectionNW___intersectionW intersectionW___intersectionSW"/>
    </vehicle>
    <vehicle id="30" depart="218.0" type="type1">
        <route edges="intersectionW___intersectionNW intersectionNW___intersectionN intersectionN___intersectionNE intersectionNE___intersectionE intersectionE___intersectionCenter intersectionCenter___intersectionN"/>
    </vehicle>
    <vehicle id="31" depart="220.0" type="type1">
        <route edges="westMiddle___intersectionW intersectionW___intersectionSW intersectionSW___intersectionS intersectionS___intersectionSE intersectionSE___intersectionE"/>
    </vehicle>
    <vehicle id="32" depart="229.0" type="type2">
        <route edges="intersectionCenter___intersectionE intersectionE___eastMiddle"/>
    </vehicle>
    <vehicle id="33" depart="230.0" type="type1">
        <route edges="intersectionCenter___intersectionE intersectionE___intersectionSE intersectionSE___southRight"/>
    </vehicle>
    <vehicle id="34" depart="231.0" type="type1">
        <route edges="intersectionCenter___intersectionS intersectionS___intersectionSE"/>
    </vehicle>
    <vehicle id="35" depart="236.0" type="type2">
        <route edges="intersectionCenter___intersectionE intersectionE___intersectionNE intersectionNE___intersectionN intersectionN___northMiddle"/>
    </vehicle>
    <vehicle id="36" depart="239.0" type="type1">
        <route edges="intersectionN___intersectionNE intersectionNE___intersectionE intersectionE___intersectionCenter intersectionCenter___intersectionN"/>
    </vehicle>
    <vehicle id="37" depart="246.0" type="type1">
        <route edges="eastBottom___intersectionSE intersectionSE___intersectionS intersectionS___intersectionSW intersectionSW___intersectionW intersectionW___intersectionCenter"/>
    </vehicle>
    <vehicle id="38" depart="253.0" type="type1">
        <route edges="westTop___intersectionNW intersectionNW___intersectionN intersectionN___intersectionNE intersectionNE___intersectionE intersectionE___eastMiddle"/>
    </vehicle>
    <vehicle id="39" depart="255.0" type="type1">
        <route edges="intersectionW___intersectionSW intersectionSW___intersectionS intersectionS___intersectionCenter intersectionCenter___intersectionW intersectionW___westMiddle"/>
    </vehicle>
    <vehicle id="40" depart="256.0" type="type1">
        <route edges="southRight___intersectionSE intersectionSE___intersectionS intersectionS___southMiddle"/>
    </vehicle>
    <vehicle id="41" depart="257.0" type="type1">
        <route edges="intersectionNW___intersectionN intersectionN___intersectionCenter intersectionCenter___intersectionS intersectionS___intersectionSW intersectionSW___intersectionW"/>
    </vehicle>
    <vehicle id="42" depart="257.0" type="type1">
        <route edges="intersectionSE___intersectionE intersectionE___intersectionCenter intersectionCenter___intersectionW intersectionW___intersectionNW"/>
    </vehicle>
    <vehicle id="43" depart="257.0" type="type1">
        <route edges="intersectionW___intersectionNW intersectionNW___intersectionN intersectionN___intersectionCenter intersectionCenter___intersectionS intersectionS___intersectionSW"/>
    </vehicle>
    <vehicle id="44" depart="258.0" type="type1">
        <route edges="southLeft___intersectionSW intersectionSW___intersectionS intersectionS___intersectionCenter intersectionCenter___intersectionN intersectionN___intersectionNW intersectionNW___intersectionW"/>
    </vehicle>
    <vehicle id="45" depart="259.0" type="type1">
        <route edges="intersectionW___intersectionNW intersectionNW___intersectionN intersectionN___intersectionCenter intersectionCenter___intersectionW"/>
    </vehicle>
    <vehicle id="46" depart="260.0" type="type1">
        <route edges="intersectionE___intersectionCenter intersectionCenter___intersectionW intersectionW___intersectionNW"/>
    </vehicle>
    <vehicle id="47" depart="260.0" type="type2">
        <route edges="intersectionN___intersectionCenter intersectionCenter___intersectionW intersectionW___intersectionSW intersectionSW___intersectionS"/>
    </vehicle>
    <vehicle id="48" depart="261.0" type="type1">
        <route edges="intersectionSW___intersectionW intersectionW___intersectionNW intersectionNW___intersectionN intersectionN___intersectionNE intersectionNE___intersectionE"/>
    </vehicle>
    <vehicle id="49" depart="267.0" type="type2">
        <route edges="intersectionS___intersectionCenter intersectionCenter___intersectionN intersectionN___intersectionNW intersectionNW___intersectionW intersectionW___intersectionCenter"/>
    </vehicle>
    <vehicle id="50" depart="270.0" type="type1">
        <route edges="intersectionNE___intersectionN intersectionN___intersectionCenter intersectionCenter___intersectionW intersectionW___intersectionNW intersectionNW___intersectionN"/>
    </vehicle>
    <vehicle id="51" depart="273.0" type="type1">
        <route edges="intersectionCenter___intersectionW intersectionW___intersectionNW intersectionNW___intersectionN intersectionN___intersectionCenter intersectionCenter___intersectionE intersectionE___intersectionNE"/>
    </vehicle>
    <vehicle id="52" depart="277.0" type="type1">
        <route edges="northRight___intersectionNE intersectionNE___intersectionE intersectionE___intersectionSE intersectionSE___intersectionS intersectionS___intersectionSW intersectionSW___intersectionW"/>
    </vehicle>
    <vehicle id="53" depart="279.0" type="type1">
        <route edges="westMiddle___intersectionW intersectionW___intersectionSW intersectionSW___intersectionS"/>
    </vehicle>
    <vehicle id="54" depart="281.0" type="type1">
        <route edges="westMiddle___intersectionW intersectionW___intersectionCenter intersectionCenter___intersectionE intersectionE___intersectionSE"/>
    </vehicle>
    <vehicle id="55" depart="283.0" type="type1">
        <route edges="intersectionCenter___intersectionW intersectionW___intersectionNW intersectionNW___intersectionN intersectionN___intersectionNE intersectionNE___intersectionE intersectionE___intersectionSE"/>
    </vehicle>
    <vehicle id="56" depart="288.0" type="type1">
        <route edges="intersectionNW___intersectionW intersectionW___westMiddle"/>
    </vehicle>
    <vehicle id="57" depart="290.0" type="type1">
        <route edges="intersectionE___intersectionNE intersectionNE___intersectionN intersectionN___intersectionCenter"/>
    </vehicle>
    <vehicle id="58" depart="290.0" type="type1">
        <route edges="eastTop___intersectionNE intersectionNE___intersectionN intersectionN___intersectionCenter intersectionCenter___intersectionE"/>
    </vehicle>
    <vehicle id="59" depart="293.0" type="type1">
        <route edges="intersectionSW___intersectionS intersectionS___intersectionCenter intersectionCenter___intersectionE intersectionE___intersectionSE intersectionSE___intersectionS"/>
    </vehicle>
    <vehicle id="60" depart="297.0" type="type1">
        <route edges="intersectionSE___intersectionS intersectionS___intersectionSW intersectionSW___intersectionW intersectionW___intersectionCenter"/>
    </vehicle>
    <vehicle id="61" depart="299.0" type="type1">
        <route edges="southLeft___intersectionSW intersectionSW___intersectionS intersectionS___intersectionCenter intersectionCenter___intersectionW intersectionW___intersectionSW"/>
    </vehicle>
    <vehicle id="62" depart="305.0" type="type1">
        <route edges="intersectionSW___intersectionW intersectionW___intersectionNW intersectionNW___intersectionN intersectionN___intersectionNE intersectionNE___intersectionE"/>
    </vehicle>
    <vehicle id="63" depart="308.0" type="type2">
        <route edges="intersectionCenter___intersectionN intersectionN___intersectionNW intersectionNW___intersectionW intersectionW___intersectionSW intersectionSW___westBottom"/>
    </vehicle>
    <vehicle id="64" depart="310.0" type="type2">
        <route edges="intersectionCenter___intersectionS intersectionS___intersectionSW intersectionSW___intersectionW intersectionW___intersectionCenter intersectionCenter___intersectionE"/>
    </vehicle>
    <vehicle id="65" depart="312.0" type="type1">
        <route edges="intersectionW___intersectionNW intersectionNW___intersectionN intersectionN___intersectionNE intersectionNE___intersectionE intersectionE___eastMiddle"/>
    </vehicle>
    <vehicle id="66" depart="324.0" type="type1">
        <route edges="intersectionS___intersectionSE intersectionSE___intersectionE intersectionE___intersectionCenter intersectionCenter___intersectionN intersectionN___intersectionNE intersectionNE___intersectionE intersectionE___intersectionSE"/>
    </vehicle>
    <vehicle id="67" depart="324.0" type="type1">
        <route edges="intersectionN___intersectionNE intersectionNE___intersectionE intersectionE___intersectionSE intersectionSE___intersectionS intersectionS___intersectionCenter intersectionCenter___intersectionE"/>
    </vehicle>
    <vehicle id="68" depart="328.0" type="type1">
        <route edges="intersectionNW___intersectionW intersectionW___intersectionCenter intersectionCenter___intersectionE intersectionE___intersectionNE intersectionNE___northRight"/>
    </vehicle>
    <vehicle id="69" depart="333.0" type="type1">
        <route edges="intersectionE___intersectionSE intersectionSE___intersectionS intersectionS___intersectionCenter intersectionCenter___intersectionE intersectionE___eastMiddle"/>
    </vehicle>
    <vehicle id="70" depart="334.0" type="type2">
        <route edges="intersectionSW___intersectionW intersectionW___intersectionNW intersectionNW___intersectionN intersectionN___intersectionCenter intersectionCenter___intersectionW intersectionW___intersectionSW intersectionSW___intersectionS"/>
    </vehicle>
    <vehicle id="71" depart="336.0" type="type1">
        <route edges="intersectionE___intersectionCenter intersectionCenter___intersectionN"/>
    </vehicle>
    <vehicle id="72" depart="339.0" type="type1">
        <route edges="intersectionE___intersectionSE intersectionSE___intersectionS intersectionS___intersectionSW intersectionSW___intersectionW"/>
    </vehicle>
    <vehicle id="73" depart="339.0" type="type1">
        <route edges="intersectionE___intersectionSE intersectionSE___southRight"/>
    </vehicle>
    <vehicle id="74" depart="341.0" type="type1">
        <route edges="eastTop___intersectionNE intersectionNE___intersectionE intersectionE___intersectionSE intersectionSE___intersectionS intersectionS___intersectionSW intersectionSW___intersectionW"/>
    </vehicle>
    <vehicle id="75" depart="345.0" type="type1">
        <route edges="intersectionCenter___intersectionS intersectionS___intersectionSE intersectionSE___intersectionE intersectionE___intersectionNE intersectionNE___eastTop"/>
    </vehicle>
    <vehicle id="76" depart="345.0" type="type2">
        <route edges="intersectionW___intersectionSW intersectionSW___intersectionS intersectionS___intersectionCenter intersectionCenter___intersectionN intersectionN___intersectionNE"/>
    </vehicle>
    <vehicle id="77" depart="345.0" type="type1">
        <route edges="intersectionS___intersectionSW intersectionSW___intersectionW intersectionW___intersectionCenter intersectionCenter___intersectionE intersectionE___intersectionNE intersectionNE___intersectionN"/>
    </vehicle>
    <vehicle id="78" depart="347.0" type="type1">
        <route edges="intersectionW___intersectionCenter intersectionCenter___intersectionE intersectionE___intersectionNE intersectionNE___intersectionN"/>
    </vehicle>
    <vehicle id="79" depart="350.0" type="type1">
        <route edges="intersectionSE___intersectionE intersectionE___intersectionNE intersectionNE___intersectionN intersectionN___intersectionNW intersectionNW___westTop"/>
    </vehicle>
    <vehicle id="80" depart="352.0" type="type1">
        <route edges="southRight___intersectionSE intersectionSE___intersectionS intersectionS___intersectionSW intersectionSW___westBottom"/>
    </vehicle>
    <vehicle id="81" depart="358.0" type="type1">
        <route edges="intersectionSW___intersectionS intersectionS___intersectionCenter intersectionCenter___intersectionE intersectionE___intersectionSE intersectionSE___intersectionS intersectionS___intersectionSW"/>
    </vehicle>
    <vehicle id="82" depart="360.0" type="type1">
        <route edges="intersectionS___intersectionCenter intersectionCenter___intersectionW intersectionW___intersectionSW intersectionSW___southLeft"/>
    </vehicle>
    <vehicle id="83" depart="363.0" type="type1">
        <route edges="intersectionSE___intersectionS intersectionS___intersectionCenter intersectionCenter___intersectionE intersectionE___intersectionSE intersectionSE___eastBottom"/>
    </vehicle>
    <vehicle id="84" depart="364.0" type="type1">
        <route edges="intersectionE___intersectionCenter intersectionCenter___intersectionW intersectionW___intersectionNW"/>
    </vehicle>
    <vehicle id="85" depart="365.0" type="type1">
        <route edges="intersectionS___intersectionSW intersectionSW___intersectionW intersectionW___intersectionCenter intersectionCenter___intersectionS intersectionS___intersectionSE"/>
    </vehicle>
    <vehicle id="86" depart="369.0" type="type2">
        <route edges="intersectionS___intersectionCenter intersectionCenter___intersectionE"/>
    </vehicle>
    <vehicle id="87" depart="372.0" type="type1">
        <route edges="intersectionCenter___intersectionE intersectionE___intersectionSE intersectionSE___intersectionS intersectionS___southMiddle"/>
    </vehicle>
    <vehicle id="88" depart="372.0" type="type1">
        <route edges="intersectionW___intersectionNW intersectionNW___intersectionN intersectionN___intersectionCenter intersectionCenter___intersectionS intersectionS___intersectionSW intersectionSW___intersectionW intersectionW___intersectionCenter"/>
    </vehicle>
    <vehicle id="89" depart="376.0" type="type1">
        <route edges="southRight___intersectionSE intersectionSE___intersectionE intersectionE___intersectionNE intersectionNE___eastTop"/>
    </vehicle>
    <vehicle id="90" depart="376.0" type="type2">
        <route edges="westTop___intersectionNW intersectionNW___intersectionN intersectionN___intersectionCenter intersectionCenter___intersectionS intersectionS___intersectionSE intersectionSE___intersectionE"/>
    </vehicle>
    <vehicle id="91" depart="377.0" type="type1">
        <route edges="intersectionW___intersectionSW intersectionSW___intersectionS intersectionS___intersectionCenter intersectionCenter___intersectionN intersectionN___intersectionNW"/>
    </vehicle>
    <vehicle id="92" depart="378.0" type="type1">
        <route edges="intersectionE___intersectionSE intersectionSE___intersectionS intersectionS___intersectionCenter intersectionCenter___intersectionN intersectionN___intersectionNE"/>
    </vehicle>
    <vehicle id="93" depart="382.0" type="type1">
        <route edges="intersectionN___intersectionNW intersectionNW___intersectionW intersectionW___intersectionCenter intersectionCenter___intersectionE intersectionE___intersectionNE intersectionNE___intersectionN"/>
    </vehicle>
    <vehicle id="94" depart="382.0" type="type2">
        <route edges="intersectionNW___intersectionN intersectionN___intersectionCenter intersectionCenter___intersectionW intersectionW___intersectionNW intersectionNW___westTop"/>
    </vehicle>
    <vehicle id="95" depart="386.0" type="type1">
        <route edges="intersectionE___intersectionSE intersectionSE___intersectionS intersectionS___intersectionCenter intersectionCenter___intersectionN intersectionN___intersectionNE intersectionNE___intersectionE intersectionE___intersectionCenter"/>
    </vehicle>
    <vehicle id="96" depart="391.0" type="type1">
        <route edges="northMiddle___intersectionN intersectionN___intersectionCenter intersectionCenter___intersectionW intersectionW___intersectionNW intersectionNW___intersectionN"/>
    </vehicle>
    <vehicle id="97" depart="392.0" type="type1">
        <route edges="intersectionNW___intersectionW intersectionW___intersectionSW intersectionSW___intersectionS intersectionS___intersectionCenter"/>
    </vehicle>
    <vehicle id="98" depart="395.0" type="type1">
        <route edges="intersectionW___intersectionNW intersectionNW___intersectionN intersectionN___intersectionCenter"/>
    </vehicle>
    <vehicle id="99" depart="395.0" type="type2">
        <route edges="intersectionNE___intersectionN intersectionN___intersectionCenter intersectionCenter___intersectionE intersectionE___intersectionSE intersectionSE___intersectionS intersectionS___intersectionCenter"/>
    </vehicle>
    <vehicle id="100" depart="396.0" type="type1">
        <route edges="intersectionE___intersectionNE intersectionNE___intersectionN intersectionN___intersectionCenter"/>
    </vehicle>
    <vehicle id="101" depart="397.0" type="type1">
        <route edges="intersectionNW___intersectionW intersectionW___westMiddle"/>
    </vehicle>
    <vehicle id="102" depart="398.0" type="type1">
        <route edges="intersectionE___intersectionNE intersectionNE___intersectionN intersectionN___intersectionCenter intersectionCenter___intersectionS intersectionS___intersectionSE intersectionSE___intersectionE"/>
    </vehicle>
    <vehicle id="103" depart="401.0" type="type1">
        <route edges="intersectionSE___intersectionS intersectionS___intersectionCenter intersectionCenter___intersectionN"/>
    </vehicle>
    <vehicle id="104" depart="403.0" type="type1">
        <route edges="intersectionCenter___intersectionW intersectionW___intersectionSW intersectionSW___intersectionS intersectionS___southMiddle"/>
    </vehicle>
    <vehicle id="105" depart="403.0" type="type1">
        <route edges="northMiddle___intersectionN intersectionN___intersectionCenter intersectionCenter___intersectionE intersectionE___intersectionSE"/>
    </vehicle>
    <vehicle id="106" depart="416.0" type="type1">
        <route edges="intersectionCenter___intersectionW intersectionW___intersectionNW"/>
    </vehicle>
    <vehicle id="107" depart="420.0" type="type1">
        <route edges="intersectionS___intersectionCenter intersectionCenter___intersectionE intersectionE___intersectionSE intersectionSE___intersectionS intersectionS___intersectionSW intersectionSW___intersectionW"/>
    </vehicle>
    <vehicle id="108" depart="420.0" type="type1">
        <route edges="southRight___intersectionSE intersectionSE___intersectionE intersectionE___intersectionCenter intersectionCenter___intersectionN intersectionN___intersectionNE intersectionNE___intersectionE"/>
    </vehicle>
    <vehicle id="109" depart="421.0" type="type1">
        <route edges="intersectionSE___intersectionE intersectionE___intersectionCenter intersectionCenter___intersectionS intersectionS___intersectionSW intersectionSW___intersectionW intersectionW___intersectionCenter"/>
    </vehicle>
    <vehicle id="110" depart="422.0" type="type1">
        <route edges="intersectionCenter___intersectionW intersectionW___intersectionNW intersectionNW___intersectionN intersectionN___intersectionNE intersectionNE___intersectionE"/>
    </vehicle>
    <vehicle id="111" depart="422.0" type="type1">
        <route edges="southMiddle___intersectionS intersectionS___intersectionSW"/>
    </vehicle>
    <vehicle id="112" depart="424.0" type="type1">
        <route edges="intersectionSE___intersectionS intersectionS___intersectionCenter intersectionCenter___intersectionE intersectionE___eastMiddle"/>
    </vehicle>
    <vehicle id="113" depart="424.0" type="type1">
        <route edges="northRight___intersectionNE intersectionNE___intersectionE intersectionE___intersectionCenter intersectionCenter___intersectionN intersectionN___intersectionNE intersectionNE___northRight"/>
    </vehicle>
    <vehicle id="114" depart="427.0" type="type1">
        <route edges="northLeft___intersectionNW intersectionNW___intersectionN intersectionN___intersectionNE intersectionNE___intersectionE"/>
    </vehicle>
    <vehicle id="115" depart="429.0" type="type1">
        <route edges="intersectionCenter___intersectionS intersectionS___intersectionSE intersectionSE___intersectionE intersectionE___intersectionCenter intersectionCenter___intersectionW intersectionW___intersectionSW intersectionSW___intersectionS"/>
    </vehicle>
    <vehicle id="116" depart="430.0" type="type1">
        <route edges="intersectionN___intersectionCenter intersectionCenter___intersectionE intersectionE___intersectionNE intersectionNE___intersectionN intersectionN___intersectionNW intersectionNW___intersectionW"/>
    </vehicle>
    <vehicle id="117" depart="432.0" type="type2">
        <route edges="intersectionN___intersectionNE intersectionNE___intersectionE intersectionE___intersectionCenter intersectionCenter___intersectionW intersectionW___intersectionNW intersectionNW___intersectionN intersectionN___intersectionCenter"/>
    </vehicle>
    <vehicle id="118" depart="432.0" type="type1">
        <route edges="intersectionN___intersectionNW intersectionNW___intersectionW intersectionW___intersectionCenter intersectionCenter___intersectionE intersectionE___intersectionSE intersectionSE___southRight"/>
    </vehicle>
    <vehicle id="119" depart="433.0" type="type1">
        <route edges="intersectionCenter___intersectionE intersectionE___intersectionSE intersectionSE___intersectionS intersectionS___intersectionCenter intersectionCenter___intersectionW intersectionW___intersectionSW intersectionSW___intersectionS"/>
    </vehicle>
    <vehicle id="120" depart="434.0" type="type1">