<?xml version="1.0" encoding="UTF-8"?>

<!-- generated on 2024-03-20 18:57:21 by Eclipse SUMO duarouter Version 1.12.0
<configuration xmlns:xsi="http://www.w3.org/2001/XMLSchema-instance" xsi:noNamespaceSchemaLocation="http://sumo.dlr.de/xsd/duarouterConfiguration.xsd">

    <input>
        <net-file value="nets/3x3/network.net.xml"/>
        <route-files value="trips.trips.xml"/>
    </input>

    <output>
        <output-file value="nets/3x3/generated_route.rou.xml"/>
        <alternatives-output value="nets/3x3/generated_route.rou.alt.xml"/>
    </output>

    <time>
        <begin value="0"/>
        <end value="1000"/>
    </time>

    <report>
        <no-warnings value="true"/>
        <ignore-errors value="true"/>
        <no-step-log value="true"/>
    </report>

</configuration>
-->

<routes xmlns:xsi="http://www.w3.org/2001/XMLSchema-instance" xsi:noNamespaceSchemaLocation="http://sumo.dlr.de/xsd/routes_file.xsd">
<vType id="type1" length="5" accel="5" decel="10" />
<vType id="type2" color="1,0,0" length="7" accel="5" decel="10" vClass="emergency" />
    <vehicle id="0" depart="26.0" type="type1">
        <route edges="intersectionCenter___intersectionS intersectionS___intersectionSW intersectionSW___intersectionW intersectionW___intersectionNW intersectionNW___intersectionN intersectionN___intersectionCenter"/>
    </vehicle>
    <vehicle id="1" depart="34.0" type="type1">
        <route edges="northLeft___intersectionNW intersectionNW___intersectionW intersectionW___intersectionCenter intersectionCenter___intersectionS intersectionS___intersectionSW intersectionSW___intersectionW"/>
    </vehicle>
    <vehicle id="2" depart="45.0" type="type1">
        <route edges="intersectionW___intersectionSW intersectionSW___intersectionS intersectionS___intersectionCenter intersectionCenter___intersectionN intersectionN___intersectionNW intersectionNW___westTop"/>
    </vehicle>
    <vehicle id="3" depart="83.0" type="type1">
        <route edges="northMiddle___intersectionN intersectionN___intersectionNE intersectionNE___intersectionE intersectionE___intersectionCenter intersectionCenter___intersectionN intersectionN___northMiddle"/>
    </vehicle>
    <vehicle id="4" depart="91.0" type="type1">
        <route edges="eastTop___intersectionNE intersectionNE___intersectionN intersectionN___intersectionCenter"/>
    </vehicle>
    <vehicle id="5" depart="100.0" type="type1">
        <route edges="eastMiddle___intersectionE intersectionE___intersectionCenter intersectionCenter___intersectionW intersectionW___intersectionNW"/>
    </vehicle>
    <vehicle id="6" depart="110.0" type="type1">
        <route edges="westMiddle___intersectionW intersectionW___intersectionNW intersectionNW___intersectionN"/>
    </vehicle>
    <vehicle id="7" depart="113.0" type="type1">
        <route edges="intersectionNE___intersectionN intersectionN___intersectionCenter intersectionCenter___intersectionS intersectionS___intersectionSW intersectionSW___westBottom"/>
    </vehicle>
    <vehicle id="8" depart="120.0" type="type1">
        <route edges="intersectionE___intersectionCenter intersectionCenter___intersectionS intersectionS___intersectionSE intersectionSE___intersectionE intersectionE___intersectionNE"/>
    </vehicle>
    <vehicle id="9" depart="135.0" type="type1">
        <route edges="intersectionCenter___intersectionW intersectionW___intersectionNW intersectionNW___intersectionN"/>
    </vehicle>
    <vehicle id="10" depart="138.0" type="type1">
        <route edges="intersectionS___intersectionSE intersectionSE___intersectionE intersectionE___intersectionCenter intersectionCenter___intersectionW intersectionW___intersectionSW"/>
    </vehicle>
    <vehicle id="11" depart="142.0" type="type2">
        <route edges="intersectionE___intersectionCenter intersectionCenter___intersectionW intersectionW___intersectionSW"/>
    </vehicle>
    <vehicle id="12" depart="144.0" type="type1">
        <route edges="intersectionSW___intersectionS intersectionS___intersectionCenter intersectionCenter___intersectionN intersectionN___intersectionNW intersectionNW___intersectionW intersectionW___intersectionCenter"/>
    </vehicle>
    <vehicle id="13" depart="149.0" type="type1">
        <route edges="northRight___intersectionNE intersectionNE___intersectionE intersectionE___intersectionCenter"/>
    </vehicle>
    <vehicle id="14" depart="161.0" type="type1">
        <route edges="intersectionS___intersectionSW intersectionSW___intersectionW intersectionW___intersectionCenter intersectionCenter___intersectionE intersectionE___eastMiddle"/>
    </vehicle>
    <vehicle id="15" depart="169.0" type="type1">
        <route edges="eastBottom___intersectionSE intersectionSE___intersectionS intersectionS___intersectionSW intersectionSW___intersectionW intersectionW___intersectionNW intersectionNW___northLeft"/>
    </vehicle>
    <vehicle id="16" depart="171.0" type="type1">
        <route edges="northLeft___intersectionNW intersectionNW___intersectionW intersectionW___intersectionSW intersectionSW___intersectionS intersectionS___intersectionSE intersectionSE___eastBottom"/>
    </vehicle>
    <vehicle id="17" depart="172.0" type="type1">
        <route edges="intersectionCenter___intersectionW intersectionW___intersectionNW intersectionNW___intersectionN intersectionN___intersectionCenter intersectionCenter___intersectionS intersectionS___intersectionSW"/>
    </vehicle>
    <vehicle id="18" depart="175.0" type="type1">
        <route edges="southRight___intersectionSE intersectionSE___intersectionE intersectionE___intersectionNE intersectionNE___eastTop"/>
    </vehicle>
    <vehicle id="19" depart="184.0" type="type1">
        <route edges="intersectionN___intersectionNW intersectionNW___intersectionW intersectionW___intersectionCenter intersectionCenter___intersectionE intersectionE___intersectionSE intersectionSE___intersectionS"/>
    </vehicle>
    <vehicle id="20" depart="190.0" type="type1">
        <route edges="southRight___intersectionSE intersectionSE___intersectionE intersectionE___eastMiddle"/>
    </vehicle>
    <vehicle id="21" depart="192.0" type="type1">
        <route edges="intersectionSW___intersectionS intersectionS___intersectionCenter intersectionCenter___intersectionW intersectionW___intersectionSW"/>
    </vehicle>
    <vehicle id="22" depart="197.0" type="type1">
        <route edges="intersectionS___intersectionCenter intersectionCenter___intersectionE intersectionE___intersectionSE intersectionSE___intersectionS intersectionS___intersectionSW intersectionSW___intersectionW"/>
    </vehicle>
    <vehicle id="23" depart="204.0" type="type1">
        <route edges="northLeft___intersectionNW intersectionNW___intersectionW intersectionW___intersectionCenter intersectionCenter___intersectionN intersectionN___intersectionNW"/>
    </vehicle>
    <vehicle id="24" depart="204.0" type="type1">
        <route edges="intersectionNE___intersectionE intersectionE___intersectionCenter intersectionCenter___intersectionS intersectionS___intersectionSE intersectionSE___intersectionE"/>
    </vehicle>
    <vehicle id="25" depart="209.0" type="type1">
        <route edges="intersectionSW___intersectionS intersectionS___intersectionCenter intersectionCenter___intersectionW intersectionW___intersectionNW intersectionNW___intersectionN"/>
    </vehicle>
    <vehicle id="26" depart="210.0" type="type1">
        <route edges="southLeft___intersectionSW intersectionSW___intersectionS intersectionS___intersectionCenter intersectionCenter___intersectionN intersectionN___intersectionNW intersectionNW___intersectionW"/>
    </vehicle>
    <vehicle id="27" depart="211.0" type="type1">
        <route edges="intersectionSE___intersectionE intersectionE___intersectionCenter intersectionCenter___intersectionS intersectionS___intersectionSW intersectionSW___westBottom"/>
    </vehicle>
    <vehicle id="28" depart="211.0" type="type1">
        <route edges="northRight___intersectionNE intersectionNE___intersectionN intersectionN___intersectionNW intersectionNW___intersectionW intersectionW___intersectionCenter"/>
    </vehicle>
    <vehicle id="29" depart="229.0" type="type2">
        <route edges="intersectionS___intersectionSW intersectionSW___intersectionW intersectionW___intersectionNW intersectionNW___intersectionN intersectionN___intersectionNE intersectionNE___intersectionE"/>
    </vehicle>
    <vehicle id="30" depart="231.0" type="type1">
        <route edges="southLeft___intersectionSW intersectionSW___intersectionW intersectionW___intersectionCenter"/>
    </vehicle>
    <vehicle id="31" depart="233.0" type="type1">
        <route edges="intersectionW___intersectionNW intersectionNW___intersectionN intersectionN___intersectionCenter intersectionCenter___intersectionS intersectionS___intersectionSW intersectionSW___westBottom"/>
    </vehicle>
    <vehicle id="32" depart="236.0" type="type1">
        <route edges="intersectionSE___intersectionS intersectionS___intersectionCenter intersectionCenter___intersectionN intersectionN___intersectionNE"/>
    </vehicle>
    <vehicle id="33" depart="238.0" type="type1">
        <route edges="intersectionSW___intersectionW intersectionW___intersectionNW intersectionNW___intersectionN intersectionN___intersectionNE intersectionNE___intersectionE intersectionE___intersectionCenter"/>
    </vehicle>
    <vehicle id="34" depart="242.0" type="type1">
        <route edges="intersectionW___intersectionCenter intersectionCenter___intersectionS intersectionS___southMiddle"/>
    </vehicle>
    <vehicle id="35" depart="242.0" type="type1">
        <route edges="intersectionCenter___intersectionS intersectionS___intersectionSW intersectionSW___westBottom"/>
    </vehicle>
    <vehicle id="36" depart="248.0" type="type1">
        <route edges="intersectionW___intersectionNW intersectionNW___intersectionN intersectionN___intersectionNE intersectionNE___intersectionE intersectionE___eastMiddle"/>
    </vehicle>
    <vehicle id="37" depart="257.0" type="type1">
        <route edges="eastMiddle___intersectionE intersectionE___intersectionCenter intersectionCenter___intersectionS intersectionS___intersectionSE intersectionSE___intersectionE"/>
    </vehicle>
    <vehicle id="38" depart="262.0" type="type1">
        <route edges="intersectionE___intersectionCenter intersectionCenter___intersectionN intersectionN___intersectionNE intersectionNE___northRight"/>
    </vehicle>
    <vehicle id="39" depart="265.0" type="type1">
        <route edges="intersectionS___intersectionSE intersectionSE___southRight"/>
    </vehicle>
    <vehicle id="40" depart="266.0" type="type1">
        <route edges="intersectionW___intersectionSW intersectionSW___intersectionS intersectionS___intersectionSE intersectionSE___eastBottom"/>
    </vehicle>
    <vehicle id="41" depart="269.0" type="type1">
        <route edges="intersectionNW___intersectionN intersectionN___intersectionCenter intersectionCenter___intersectionE"/>
    </vehicle>
    <vehicle id="42" depart="274.0" type="type1">
        <route edges="intersectionCenter___intersectionN intersectionN___intersectionNW intersectionNW___intersectionW intersectionW___intersectionCenter intersectionCenter___intersectionE intersectionE___intersectionNE"/>
    </vehicle>
    <vehicle id="43" depart="275.0" type="type1">
        <route edges="intersectionSE___intersectionS intersectionS___intersectionSW intersectionSW___intersectionW"/>
    </vehicle>
    <vehicle id="44" depart="276.0" type="type1">
        <route edges="intersectionE___intersectionCenter intersectionCenter___intersectionW intersectionW___intersectionNW intersectionNW___northLeft"/>
    </vehicle>
    <vehicle id="45" depart="277.0" type="type1">
        <route edges="westBottom___intersectionSW intersectionSW___intersectionW intersectionW___intersectionNW intersectionNW___northLeft"/>
    </vehicle>
    <vehicle id="46" depart="278.0" type="type2">
        <route edges="intersectionW___intersectionNW intersectionNW___intersectionN intersectionN___intersectionNE intersectionNE___intersectionE intersectionE___intersectionSE intersectionSE___intersectionS"/>
    </vehicle>
    <vehicle id="47" depart="284.0" type="type1">
        <route edges="intersectionS___intersectionSW intersectionSW___intersectionW intersectionW___intersectionNW intersectionNW___intersectionN intersectionN___intersectionNE"/>
    </vehicle>
    <vehicle id="48" depart="285.0" type="type2">
        <route edges="intersectionSW___intersectionS intersectionS___intersectionCenter intersectionCenter___intersectionE intersectionE___intersectionSE intersectionSE___intersectionS intersectionS___intersectionSW intersectionSW___intersectionW"/>
    </vehicle>
    <vehicle id="49" depart="291.0" type="type1">
        <route edges="intersectionCenter___intersectionS intersectionS___intersectionSW intersectionSW___intersectionW intersectionW___intersectionCenter intersectionCenter___intersectionE intersectionE___intersectionSE intersectionSE___intersectionS intersectionS___intersectionCenter"/>
    </vehicle>
    <vehicle id="50" depart="294.0" type="type1">
        <route edges="southMiddle___intersectionS intersectionS___intersectionCenter intersectionCenter___intersectionN"/>
    </vehicle>
    <vehicle id="51" depart="298.0" type="type1">
        <route edges="intersectionE___intersectionCenter intersectionCenter___intersectionN intersectionN___intersectionNE intersectionNE___eastTop"/>
    </vehicle>
    <vehicle id="52" depart="298.0" type="type1">
        <route edges="intersectionCenter___intersectionE intersectionE___intersectionSE intersectionSE___intersectionS intersectionS___intersectionCenter intersectionCenter___intersectionN intersectionN___intersectionNE intersectionNE___intersectionE intersectionE___intersectionCenter"/>
    </vehicle>
    <vehicle id="53" depart="300.0" type="type1">
        <route edges="intersectionS___intersectionSW intersectionSW___intersectionW intersectionW___intersectionCenter intersectionCenter___intersectionE intersectionE___eastMiddle"/>
    </vehicle>
    <vehicle id="54" depart="300.0" type="type1">
        <route edges="eastTop___intersectionNE intersectionNE___intersectionN intersectionN___intersectionNW intersectionNW___intersectionW intersectionW___intersectionSW"/>
    </vehicle>
    <vehicle id="55" depart="300.0" type="type2">
        <route edges="intersectionN___intersectionCenter intersectionCenter___intersectionW intersectionW___intersectionNW intersectionNW___intersectionN intersectionN___northMiddle"/>
    </vehicle>
    <vehicle id="56" depart="301.0" type="type1">
        <route edges="intersectionSE___intersectionE intersectionE___intersectionCenter intersectionCenter___intersectionW intersectionW___intersectionNW intersectionNW___intersectionN"/>
    </vehicle>
    <vehicle id="57" depart="302.0" type="type1">
        <route edges="intersectionN___intersectionNW intersectionNW___intersectionW intersectionW___intersectionCenter intersectionCenter___intersectionE intersectionE___intersectionNE"/>
    </vehicle>
    <vehicle id="58" depart="303.0" type="type1">
        <route edges="intersectionSW___intersectionW intersectionW___intersectionNW intersectionNW___intersectionN intersectionN___intersectionNE intersectionNE___intersectionE"/>
    </vehicle>
    <vehicle id="59" depart="307.0" type="type1">
        <route edges="intersectionCenter___intersectionS intersectionS___intersectionSW intersectionSW___intersectionW intersectionW___intersectionCenter intersectionCenter___intersectionE intersectionE___intersectionSE"/>
    </vehicle>
    <vehicle id="60" depart="308.0" type="type1">
        <route edges="intersectionN___intersectionCenter intersectionCenter___intersectionW intersectionW___intersectionNW"/>
    </vehicle>
    <vehicle id="61" depart="313.0" type="type2">
        <route edges="intersectionS___intersectionCenter intersectionCenter___intersectionW intersectionW___westMiddle"/>
    </vehicle>
    <vehicle id="62" depart="314.0" type="type1">
        <route edges="intersectionN___intersectionCenter intersectionCenter___intersectionW intersectionW___intersectionNW intersectionNW___intersectionN intersectionN___intersectionNE intersectionNE___intersectionE"/>
    </vehicle>
    <vehicle id="63" depart="318.0" type="type1">
        <route edges="intersectionW___intersectionNW intersectionNW___intersectionN intersectionN___intersectionCenter intersectionCenter___intersectionE intersectionE___intersectionNE"/>
    </vehicle>
    <vehicle id="64" depart="319.0" type="type1">
        <route edges="westTop___intersectionNW intersectionNW___northLeft"/>
    </vehicle>
    <vehicle id="65" depart="321.0" type="type2">
        <route edges="intersectionE___intersectionSE intersectionSE___intersectionS intersectionS___intersectionCenter intersectionCenter___intersectionN intersectionN___intersectionNE intersectionNE___intersectionE"/>
    </vehicle>
    <vehicle id="66" depart="324.0" type="type1">
        <route edges="intersectionNE___intersectionE intersectionE___intersectionCenter intersectionCenter___intersectionW intersectionW___intersectionNW"/>
    </vehicle>
    <vehicle id="67" depart="324.0" type="type1">
        <route edges="westTop___intersectionNW intersectionNW___intersectionN intersectionN___intersectionNE intersectionNE___intersectionE intersectionE___intersectionSE intersectionSE___eastBottom"/>
    </vehicle>
    <vehicle id="68" depart="327.0" type="type1">
        <route edges="intersectionE___intersectionNE intersectionNE___intersectionN intersectionN___intersectionCenter intersectionCenter___intersectionE"/>
    </vehicle>
    <vehicle id="69" depart="327.0" type="type2">
        <route edges="eastTop___intersectionNE intersectionNE___intersectionN"/>
    </vehicle>
    <vehicle id="70" depart="332.0" type="type1">
        <route edges="intersectionS___intersectionSW intersectionSW___intersectionW intersectionW___intersectionCenter intersectionCenter___intersectionE intersectionE___intersectionSE intersectionSE___intersectionS"/>
    </vehicle>
    <vehicle id="71" depart="332.0" type="type2">
        <route edges="southLeft___intersectionSW intersectionSW___intersectionS intersectionS___intersectionSE"/>
    </vehicle>
    <vehicle id="72" depart="339.0" type="type1">
        <route edges="intersectionNW___intersectionN intersectionN___intersectionCenter intersectionCenter___intersectionW intersectionW___intersectionSW intersectionSW___intersectionS"/>
    </vehicle>
    <vehicle id="73" depart="340.0" type="type1">
        <route edges="intersectionN___intersectionNE intersectionNE___intersectionE intersectionE___intersectionSE intersectionSE___intersectionS intersectionS___intersectionSW intersectionSW___southLeft"/>
    </vehicle>
    <vehicle id="74" depart="345.0" type="type1">
        <route edges="intersectionCenter___intersectionW intersectionW___westMiddle"/>
    </vehicle>
    <vehicle id="75" depart="346.0" type="type1">
        <route edges="eastBottom___intersectionSE intersectionSE___intersectionS"/>
    </vehicle>
    <vehicle id="76" depart="351.0" type="type1">
        <route edges="intersectionNW___intersectionN intersectionN___intersectionNE intersectionNE___intersectionE intersectionE___intersectionSE intersectionSE___intersectionS intersectionS___intersectionCenter"/>
    </vehicle>
    <vehicle id="77" depart="352.0" type="type1">
        <route edges="intersectionCenter___intersectionS intersectionS___intersectionSW intersectionSW___intersectionW intersectionW___intersectionCenter"/>
    </vehicle>
    <vehicle id="78" depart="353.0" type="type1">
        <route edges="eastBottom___intersectionSE intersectionSE___intersectionS intersectionS___intersectionSW intersectionSW___southLeft"/>
    </vehicle>
    <vehicle id="79" depart="361.0" type="type1">
        <route edges="intersectionW___intersectionNW intersectionNW___intersectionN intersectionN___intersectionNE intersectionNE___intersectionE intersectionE___intersectionCenter intersectionCenter___intersectionN intersectionN___intersectionNW"/>
    </vehicle>
    <vehicle id="80" depart="365.0" type="type1">
        <route edges="intersectionCenter___intersectionW intersectionW___intersectionSW intersectionSW___intersectionS intersectionS___intersectionCenter intersectionCenter___intersectionN intersectionN___intersectionNW intersectionNW___intersectionW"/>
    </vehicle>
    <vehicle id="81" depart="365.0" type="type1">
        <route edges="intersectionN___intersectionNW intersectionNW___intersectionW intersectionW___intersectionCenter intersectionCenter___intersectionE intersectionE___intersectionSE"/>
    </vehicle>
    <vehicle id="82" depart="366.0" type="type1">
        <route edges="intersectionCenter___intersectionS intersectionS___intersectionSW"/>
    </vehicle>
    <vehicle id="83" depart="366.0" type="type1">
        <route edges="intersectionSW___intersectionS intersectionS___intersectionCenter intersectionCenter___intersectionN intersectionN___intersectionNE intersectionNE___intersectionE"/>
    </vehicle>
    <vehicle id="84" depart="367.0" type="type1">
        <route edges="intersectionS___intersectionSE intersectionSE___intersectionE intersectionE___intersectionCenter intersectionCenter___intersectionN intersectionN___intersectionNE intersectionNE___intersectionE intersectionE___intersectionSE intersectionSE___intersectionS"/>
    </vehicle>
    <vehicle id="85" depart="369.0" type="type1">
        <route edges="intersectionCenter___intersectionN intersectionN___intersectionNE intersectionNE___intersectionE intersectionE___intersectionCenter intersectionCenter___intersectionS intersectionS___intersectionSE intersectionSE___intersectionE"/>
    </vehicle>
    <vehicle id="86" depart="370.0" type="type1">
        <route edges="intersectionS___intersectionCenter intersectionCenter___intersectionW"/>
    </vehicle>
    <vehicle id="87" depart="371.0" type="type1">
        <route edges="intersectionNE___intersectionE intersectionE___intersectionCenter intersectionCenter___intersectionS intersectionS___southMiddle"/>
    </vehicle>
    <vehicle id="88" depart="371.0" type="type1">
        <route edges="intersectionSW___intersectionW intersectionW___intersectionNW intersectionNW___intersectionN intersectionN___intersectionNE intersectionNE___eastTop"/>
    </vehicle>
    <vehicle id="89" depart="373.0" type="type1">
        <route edges="intersectionN___intersectionCenter"/>
    </vehicle>
    <vehicle id="90" depart="374.0" type="type1">
        <route edges="intersectionW___intersectionNW intersectionNW___intersectionN intersectionN___intersectionCenter intersectionCenter___intersectionS intersectionS___intersectionSW"/>
    </vehicle>
    <vehicle id="91" depart="379.0" type="type1">
        <route edges="intersectionCenter___intersectionE intersectionE___intersectionSE intersectionSE___intersectionS intersectionS___intersectionCenter intersectionCenter___intersectionN"/>
    </vehicle>
    <vehicle id="92" depart="381.0" type="type1">
        <route edges="intersectionN___intersectionNE intersectionNE___intersectionE intersectionE___intersectionSE intersectionSE___intersectionS intersectionS___intersectionCenter intersectionCenter___intersectionE"/>
    </vehicle>
    <vehicle id="93" depart="384.0" type="type1">
        <route edges="intersectionCenter___intersectionS intersectionS___intersectionSE intersectionSE___intersectionE intersectionE___intersectionCenter intersectionCenter___intersectionW"/>
    </vehicle>
    <vehicle id="94" depart="386.0" type="type1">
        <route edges="intersectionCenter___intersectionE intersectionE___intersectionSE intersectionSE___intersectionS"/>
    </vehicle>
    <vehicle id="95" depart="386.0" type="type1">
        <route edges="intersectionCenter___intersectionE intersectionE___intersectionSE intersectionSE___eastBottom"/>
    </vehicle>
    <vehicle id="96" depart="386.0" type="type1">
        <route edges="westMiddle___intersectionW intersectionW___intersectionCenter intersectionCenter___intersectionN intersectionN___intersectionNE intersectionNE___intersectionE intersectionE___intersectionCenter"/>
    </vehicle>
    <vehicle id="97" depart="388.0" type="type1">
        <route edges="northLeft___intersectionNW intersectionNW___intersectionW intersectionW___intersectionSW intersectionSW___intersectionS intersectionS___intersectionSE intersectionSE___intersectionE"/>
    </vehicle>
    <vehicle id="98" depart="390.0" type="type1">
        <route edges="intersectionCenter___intersectionW intersectionW___intersectionSW"/>
    </vehicle>
    <vehicle id="99" depart="392.0" type="type1">
        <route edges="intersectionW___intersectionSW intersectionSW___intersectionS intersectionS___intersectionCenter intersectionCenter___intersectionN intersectionN___intersectionNW intersectionNW___intersectionW"/>
    </vehicle>
    <vehicle id="100" depart="400.0" type="type1">
        <route edges="southMiddle___intersectionS intersectionS___intersectionCenter intersectionCenter___intersectionW"/>
    </vehicle>
    <vehicle id="101" depart="400.0" type="type1">
        <route edges="southLeft___intersectionSW intersectionSW___intersectionW intersectionW___intersectionCenter intersectionCenter___intersectionS intersectionS___intersectionSW"/>
    </vehicle>
    <vehicle id="102" depart="402.0" type="type2">
        <route edges="intersectionCenter___intersectionN intersectionN___intersectionNW intersectionNW___intersectionW intersectionW___intersectionCenter"/>
    </vehicle>
    <vehicle id="103" depart="403.0" type="type1">
        <route edges="northMiddle___intersectionN intersectionN___intersectionNW intersectionNW___intersectionW intersectionW___intersectionCenter"/>
    </vehicle>
    <vehicle id="104" depart="404.0" type="type2">
        <route edges="intersectionNE___intersectionE intersectionE___intersectionSE intersectionSE___intersectionS intersectionS___intersectionSW intersectionSW___southLeft"/>
    </vehicle>
    <vehicle id="105" depart="405.0" type="type1">
        <route edges="northMiddle___intersectionN intersectionN___intersectionCenter intersectionCenter___intersectionW intersectionW___intersectionNW intersectionNW___intersectionN"/>
    </vehicle>
    <vehicle id="106" depart="406.0" type="type1">
        <route edges="eastMiddle___intersectionE intersectionE___intersectionSE intersectionSE___intersectionS intersectionS___intersectionCenter intersectionCenter___intersectionE"/>
    </vehicle>
    <vehicle id="107" depart="406.0" type="type1">
        <route edges="intersectionSE___intersectionS intersectionS___intersectionCenter intersectionCenter___intersectionN intersectionN___northMiddle"/>
    </vehicle>
    <vehicle id="108" depart="406.0" type="type1">
        <route edges="intersectionCenter___intersectionN intersectionN___intersectionNE intersectionNE___intersectionE intersectionE___intersectionSE intersectionSE___intersectionS"/>
    </vehicle>
    <vehicle id="109" depart="409.0" type="type1">
        <route edges="eastMiddle___intersectionE intersectionE___intersectionCenter intersectionCenter___intersectionN intersectionN___intersectionNE"/>
    </vehicle>
    <vehicle id="110" depart="409.0" type="type1">
        <route edges="intersectionSE___intersectionS intersectionS___intersectionCenter intersectionCenter___intersectionE intersectionE___intersectionSE"/>
    </vehicle>
    <vehicle id="111" depart="410.0" type="type1">
        <route edges="eastMiddle___intersectionE intersectionE___intersectionCenter intersectionCenter___intersectionS intersectionS___intersectionSW intersectionSW___intersectionW intersectionW___intersectionCenter"/>
    </vehicle>
    <vehicle id="112" depart="411.0" type="type1">
        <route edges="southLeft___intersectionSW intersectionSW___intersectionS intersectionS___intersectionSE intersectionSE___intersectionE"/>
    </vehicle>
    <vehicle id="113" depart="412.0" type="type2">
        <route edges="eastMiddle___intersectionE intersectionE___intersectionNE intersectionNE___intersectionN intersectionN___intersectionNW"/>
    </vehicle>
    <vehicle id="114" depart="417.0" type="type1">
        <route edges="westMiddle___intersectionW intersectionW___intersectionSW intersectionSW___westBottom"/>
    </vehicle>
    <vehicle id="115" depart="418.0" type="type1">
        <route edges="intersectionW___intersectionCenter intersectionCenter___intersectionN"/>
    </vehicle>
    <vehicle id="116" depart="427.0" type="type1">
        <route edges="intersectionSW___intersectionW intersectionW___intersectionNW intersectionNW___intersectionN intersectionN___intersectionNE intersectionNE___eastTop"/>
    </vehicle>
    <vehicle id="117" depart="428.0" type="type1">
        <route edges="westTop___intersectionNW intersectionNW___intersectionW intersectionW___intersectionCenter intersectionCenter___intersectionE"/>
    </vehicle>
    <vehicle id="118" depart="428.0" type="type1">
        <route edges="intersectionE___intersectionNE intersectionNE___intersectionN intersectionN___intersectionCenter intersectionCenter___intersectionS intersectionS___southMiddle"/>
    </vehicle>
    <vehicle id="119" depart="430.0" type="type1">
        <route edges="intersectionCenter___intersectionN intersectionN___intersectionNW intersectionNW___intersectionW intersectionW___intersectionCenter intersectionCenter___intersectionE intersectionE___intersectionNE intersectionNE___intersectionN"/>
    </vehicle>
    <vehicle id="120" depart="432.0" type="type2">
        <route edges="intersectionNE___intersectionN intersectionN___intersectionCenter intersectionCenter___intersectionS intersectionS___southMiddle"/>
    </vehicle>
    <vehicle id="121" depart="432.0" type="type1">
        <route edges="intersectionW___intersectionNW"/>
    </vehicle>
    <vehicle id="122" depart="433.0" type="type1">