<?xml version="1.0" encoding="UTF-8"?>

<!-- generated on 2024-03-02 19:27:19.205348 by randomTrips.py v1_19_0+0000-baa66a0f364
<configuration>
    <net-file value="nets/3x3/3x3.net.xml"/>
    <route-file value="nets/3x3/generated_route.rou.xml"/>
    <validate value="True"/>
    <end value="1000.0"/>
</configuration>
-->

<!-- generated on 2024-03-02 19:27:19 by Eclipse SUMO duarouter Version 1.19.0
<configuration xmlns:xsi="http://www.w3.org/2001/XMLSchema-instance" xsi:noNamespaceSchemaLocation="http://sumo.dlr.de/xsd/duarouterConfiguration.xsd">

    <input>
        <net-file value="nets/3x3/3x3.net.xml"/>
        <route-files value="trips.trips.xml"/>
    </input>

    <output>
        <output-file value="nets/3x3/generated_route.rou.xml"/>
        <alternatives-output value="NUL"/>
    </output>

    <time>
        <begin value="0"/>
        <end value="1000.0"/>
    </time>

    <report>
        <no-warnings value="true"/>
        <ignore-errors value="true"/>
        <no-step-log value="true"/>
    </report>

</configuration>
-->

<routes xmlns:xsi="http://www.w3.org/2001/XMLSchema-instance" xsi:noNamespaceSchemaLocation="http://sumo.dlr.de/xsd/routes_file.xsd">
<vType id="type1" length="5" accel="5" decel="10" />
<vType id="type2" color="1,0,0" length="7" accel="5" decel="10" vClass="emergency" />
    <vehicle id="0" depart="9.0" type="type1">
        <route edges="intersectionS___intersectionSW intersectionSW___intersectionW intersectionW___intersectionCenter intersectionCenter___intersectionE"/>
    </vehicle>
    <vehicle id="1" depart="66.0" type="type1">
        <route edges="intersectionE___intersectionSE intersectionSE___intersectionS intersectionS___intersectionCenter intersectionCenter___intersectionN intersectionN___intersectionNE intersectionNE___eastTop"/>
    </vehicle>
    <vehicle id="2" depart="85.0" type="type1">
        <route edges="intersectionW___intersectionSW intersectionSW___intersectionS"/>
    </vehicle>
    <vehicle id="3" depart="94.0" type="type1">
        <route edges="southRight___intersectionSE intersectionSE___intersectionE intersectionE___intersectionCenter intersectionCenter___intersectionW"/>
    </vehicle>
    <vehicle id="4" depart="110.0" type="type1">
        <route edges="intersectionN___intersectionNE intersectionNE___intersectionE intersectionE___intersectionCenter intersectionCenter___intersectionN"/>
    </vehicle>
    <vehicle id="5" depart="116.0" type="type1">
        <route edges="intersectionE___intersectionCenter intersectionCenter___intersectionN intersectionN___intersectionNW"/>
    </vehicle>
    <vehicle id="6" depart="122.0" type="type1">
        <route edges="eastBottom___intersectionSE intersectionSE___intersectionS intersectionS___intersectionCenter intersectionCenter___intersectionE intersectionE___intersectionSE"/>
    </vehicle>
    <vehicle id="7" depart="123.0" type="type1">
        <route edges="intersectionS___intersectionSW intersectionSW___intersectionW intersectionW___intersectionNW intersectionNW___intersectionN intersectionN___northMiddle"/>
    </vehicle>
    <vehicle id="8" depart="126.0" type="type2">
        <route edges="intersectionE___intersectionCenter intersectionCenter___intersectionS intersectionS___intersectionSE intersectionSE___intersectionE"/>
    </vehicle>
    <vehicle id="9" depart="127.0" type="type2">
        <route edges="northRight___intersectionNE intersectionNE___intersectionN intersectionN___intersectionCenter intersectionCenter___intersectionE"/>
    </vehicle>
    <vehicle id="10" depart="132.0" type="type1">
        <route edges="northRight___intersectionNE intersectionNE___intersectionE intersectionE___intersectionSE intersectionSE___intersectionS intersectionS___intersectionSW intersectionSW___intersectionW"/>
    </vehicle>
    <vehicle id="11" depart="147.0" type="type1">
        <route edges="intersectionNW___intersectionN intersectionN___intersectionNE intersectionNE___intersectionE intersectionE___intersectionCenter"/>
    </vehicle>
    <vehicle id="12" depart="155.0" type="type1">
        <route edges="westMiddle___intersectionW intersectionW___intersectionNW intersectionNW___intersectionN"/>
    </vehicle>
    <vehicle id="13" depart="156.0" type="type1">
        <route edges="intersectionCenter___intersectionE intersectionE___intersectionSE intersectionSE___intersectionS intersectionS___intersectionCenter intersectionCenter___intersectionW"/>
    </vehicle>
    <vehicle id="14" depart="157.0" type="type1">
        <route edges="southLeft___intersectionSW intersectionSW___intersectionS intersectionS___intersectionSE intersectionSE___intersectionE"/>
    </vehicle>
    <vehicle id="15" depart="165.0" type="type2">
        <route edges="northRight___intersectionNE intersectionNE___intersectionE intersectionE___intersectionSE intersectionSE___intersectionS intersectionS___intersectionSW intersectionSW___southLeft"/>
    </vehicle>
    <vehicle id="16" depart="174.0" type="type1">
        <route edges="intersectionSW___intersectionS intersectionS___intersectionCenter intersectionCenter___intersectionW intersectionW___westMiddle"/>
    </vehicle>
    <vehicle id="17" depart="176.0" type="type1">
        <route edges="intersectionNW___intersectionW intersectionW___intersectionCenter intersectionCenter___intersectionN intersectionN___northMiddle"/>
    </vehicle>
    <vehicle id="18" depart="183.0" type="type1">
        <route edges="northRight___intersectionNE intersectionNE___intersectionE intersectionE___intersectionSE intersectionSE___intersectionS"/>
    </vehicle>
    <vehicle id="19" depart="185.0" type="type1">
        <route edges="southMiddle___intersectionS intersectionS___intersectionSE intersectionSE___eastBottom"/>
    </vehicle>
    <vehicle id="20" depart="188.0" type="type1">
        <route edges="intersectionW___intersectionNW intersectionNW___intersectionN intersectionN___intersectionNE intersectionNE___intersectionE intersectionE___intersectionCenter intersectionCenter___intersectionN"/>
    </vehicle>
    <vehicle id="21" depart="193.0" type="type2">
        <route edges="intersectionE___intersectionNE intersectionNE___intersectionN"/>
    </vehicle>
    <vehicle id="22" depart="200.0" type="type2">
        <route edges="eastTop___intersectionNE intersectionNE___intersectionE intersectionE___intersectionCenter intersectionCenter___intersectionN intersectionN___intersectionNE intersectionNE___eastTop"/>
    </vehicle>
    <vehicle id="23" depart="203.0" type="type1">
        <route edges="intersectionCenter___intersectionE intersectionE___intersectionNE intersectionNE___intersectionN"/>
    </vehicle>
    <vehicle id="24" depart="207.0" type="type1">
        <route edges="intersectionS___intersectionSE intersectionSE___intersectionE intersectionE___intersectionNE intersectionNE___intersectionN intersectionN___intersectionNW intersectionNW___intersectionW"/>
    </vehicle>
    <vehicle id="25" depart="208.0" type="type1">
        <route edges="intersectionNW___intersectionW intersectionW___intersectionCenter intersectionCenter___intersectionE intersectionE___intersectionSE"/>
    </vehicle>
    <vehicle id="26" depart="218.0" type="type1">
        <route edges="intersectionE___intersectionSE intersectionSE___intersectionS intersectionS___intersectionSW intersectionSW___intersectionW intersectionW___intersectionNW"/>
    </vehicle>
    <vehicle id="27" depart="218.0" type="type1">
        <route edges="intersectionS___intersectionSW intersectionSW___intersectionW intersectionW___intersectionCenter intersectionCenter___intersectionS intersectionS___intersectionSE intersectionSE___intersectionE"/>
    </vehicle>
    <vehicle id="28" depart="219.0" type="type1">
        <route edges="intersectionCenter___intersectionW intersectionW___intersectionSW intersectionSW___southLeft"/>
    </vehicle>
    <vehicle id="29" depart="222.0" type="type1">
        <route edges="intersectionCenter___intersectionS intersectionS___intersectionSW intersectionSW___intersectionW intersectionW___intersectionCenter intersectionCenter___intersectionN intersectionN___intersectionNW intersectionNW___intersectionW"/>
    </vehicle>
    <vehicle id="30" depart="223.0" type="type1">
        <route edges="westTop___intersectionNW intersectionNW___intersectionN intersectionN___intersectionNE intersectionNE___intersectionE intersectionE___intersectionSE intersectionSE___southRight"/>
    </vehicle>
    <vehicle id="31" depart="229.0" type="type1">
        <route edges="intersectionSW___intersectionW intersectionW___intersectionNW intersectionNW___intersectionN intersectionN___intersectionCenter intersectionCenter___intersectionW intersectionW___intersectionSW intersectionSW___intersectionS"/>
    </vehicle>
    <vehicle id="32" depart="229.0" type="type1">
        <route edges="southLeft___intersectionSW intersectionSW___westBottom"/>
    </vehicle>
    <vehicle id="33" depart="231.0" type="type1">
        <route edges="intersectionE___intersectionNE intersectionNE___intersectionN intersectionN___intersectionNW intersectionNW___intersectionW intersectionW___intersectionCenter intersectionCenter___intersectionN"/>
    </vehicle>
    <vehicle id="34" depart="231.0" type="type2">
        <route edges="intersectionNE___intersectionN intersectionN___intersectionCenter intersectionCenter___intersectionW intersectionW___intersectionNW intersectionNW___intersectionN intersectionN___intersectionNE intersectionNE___intersectionE"/>
    </vehicle>
    <vehicle id="35" depart="231.0" type="type1">
        <route edges="intersectionE___intersectionCenter intersectionCenter___intersectionW intersectionW___intersectionNW"/>
    </vehicle>
    <vehicle id="36" depart="236.0" type="type1">
        <route edges="southMiddle___intersectionS intersectionS___intersectionCenter intersectionCenter___intersectionN intersectionN___intersectionNE intersectionNE___northRight"/>
    </vehicle>
    <vehicle id="37" depart="238.0" type="type1">
        <route edges="intersectionS___intersectionSW intersectionSW___intersectionW intersectionW___intersectionNW intersectionNW___northLeft"/>
    </vehicle>
    <vehicle id="38" depart="239.0" type="type1">
        <route edges="southRight___intersectionSE intersectionSE___intersectionE intersectionE___intersectionNE intersectionNE___intersectionN intersectionN___intersectionCenter"/>
    </vehicle>
    <vehicle id="39" depart="241.0" type="type2">
        <route edges="intersectionE___intersectionSE intersectionSE___intersectionS intersectionS___intersectionCenter intersectionCenter___intersectionN intersectionN___intersectionNE intersectionNE___eastTop"/>
    </vehicle>
    <vehicle id="40" depart="243.0" type="type1">
        <route edges="intersectionSW___intersectionW intersectionW___intersectionNW intersectionNW___intersectionN intersectionN___intersectionNE intersectionNE___intersectionE"/>
    </vehicle>
    <vehicle id="41" depart="248.0" type="type1">
        <route edges="intersectionS___intersectionCenter intersectionCenter___intersectionN intersectionN___intersectionNW intersectionNW___intersectionW intersectionW___intersectionCenter"/>
    </vehicle>
    <vehicle id="42" depart="248.0" type="type1">
        <route edges="intersectionN___intersectionCenter intersectionCenter___intersectionE intersectionE___intersectionSE"/>
    </vehicle>
    <vehicle id="43" depart="252.0" type="type2">
        <route edges="westTop___intersectionNW intersectionNW___intersectionW intersectionW___intersectionCenter intersectionCenter___intersectionN intersectionN___intersectionNW"/>
    </vehicle>
    <vehicle id="44" depart="259.0" type="type1">
        <route edges="intersectionCenter___intersectionE intersectionE___intersectionSE intersectionSE___intersectionS intersectionS___intersectionCenter intersectionCenter___intersectionN"/>
    </vehicle>
    <vehicle id="45" depart="269.0" type="type1">
        <route edges="intersectionCenter___intersectionE intersectionE___intersectionSE intersectionSE___intersectionS"/>
    </vehicle>
    <vehicle id="46" depart="277.0" type="type1">
        <route edges="northMiddle___intersectionN intersectionN___intersectionNW intersectionNW___westTop"/>
    </vehicle>
    <vehicle id="47" depart="280.0" type="type1">
        <route edges="eastTop___intersectionNE intersectionNE___intersectionN intersectionN___intersectionNW intersectionNW___intersectionW"/>
    </vehicle>
    <vehicle id="48" depart="282.0" type="type1">
        <route edges="westTop___intersectionNW intersectionNW___intersectionN intersectionN___northMiddle"/>
    </vehicle>
    <vehicle id="49" depart="284.0" type="type1">
        <route edges="westMiddle___intersectionW intersectionW___intersectionCenter intersectionCenter___intersectionS intersectionS___intersectionSW"/>
    </vehicle>
    <vehicle id="50" depart="288.0" type="type1">
        <route edges="eastBottom___intersectionSE intersectionSE___intersectionS intersectionS___intersectionSW intersectionSW___intersectionW"/>
    </vehicle>
    <vehicle id="51" depart="292.0" type="type1">
        <route edges="intersectionW___intersectionCenter intersectionCenter___intersectionN intersectionN___northMiddle"/>
    </vehicle>
    <vehicle id="52" depart="292.0" type="type1">
        <route edges="intersectionE___intersectionSE intersectionSE___southRight"/>
    </vehicle>
    <vehicle id="53" depart="300.0" type="type1">
        <route edges="intersectionCenter___intersectionN intersectionN___intersectionNW intersectionNW___westTop"/>
    </vehicle>
    <vehicle id="54" depart="301.0" type="type1">
        <route edges="intersectionN___intersectionNW intersectionNW___intersectionW intersectionW___intersectionSW"/>
    </vehicle>
    <vehicle id="55" depart="303.0" type="type1">
        <route edges="southMiddle___intersectionS intersectionS___intersectionCenter intersectionCenter___intersectionN intersectionN___intersectionNE intersectionNE___intersectionE"/>
    </vehicle>
    <vehicle id="56" depart="306.0" type="type1">
        <route edges="intersectionSE___intersectionS intersectionS___intersectionCenter intersectionCenter___intersectionE intersectionE___intersectionNE"/>
    </vehicle>
    <vehicle id="57" depart="308.0" type="type1">
        <route edges="southRight___intersectionSE intersectionSE___intersectionS intersectionS___southMiddle"/>
    </vehicle>
    <vehicle id="58" depart="314.0" type="type1">
        <route edges="intersectionNE___intersectionE intersectionE___intersectionSE intersectionSE___southRight"/>
    </vehicle>
    <vehicle id="59" depart="317.0" type="type1">
        <route edges="intersectionS___intersectionCenter intersectionCenter___intersectionN intersectionN___intersectionNE intersectionNE___intersectionE intersectionE___intersectionCenter"/>
    </vehicle>
    <vehicle id="60" depart="321.0" type="type1">
        <route edges="northLeft___intersectionNW intersectionNW___intersectionN intersectionN___northMiddle"/>
    </vehicle>
    <vehicle id="61" depart="323.0" type="type1">
        <route edges="northMiddle___intersectionN intersectionN___intersectionNE intersectionNE___intersectionE intersectionE___intersectionCenter intersectionCenter___intersectionN intersectionN___northMiddle"/>
    </vehicle>
    <vehicle id="62" depart="323.0" type="type1">
        <route edges="eastBottom___intersectionSE intersectionSE___intersectionE intersectionE___intersectionNE intersectionNE___northRight"/>
    </vehicle>
    <vehicle id="63" depart="323.0" type="type1">
        <route edges="eastBottom___intersectionSE intersectionSE___intersectionS intersectionS___intersectionSW intersectionSW___intersectionW intersectionW___intersectionNW"/>
    </vehicle>
    <vehicle id="64" depart="324.0" type="type1">
        <route edges="southMiddle___intersectionS intersectionS___intersectionSE"/>
    </vehicle>
    <vehicle id="65" depart="329.0" type="type2">
        <route edges="intersectionNE___intersectionN intersectionN___intersectionCenter intersectionCenter___intersectionS"/>
    </vehicle>
    <vehicle id="66" depart="331.0" type="type1">
        <route edges="southMiddle___intersectionS intersectionS___intersectionCenter intersectionCenter___intersectionW intersectionW___intersectionSW"/>
    </vehicle>
    <vehicle id="67" depart="336.0" type="type1">
        <route edges="intersectionCenter___intersectionE intersectionE___intersectionSE intersectionSE___intersectionS intersectionS___intersectionCenter intersectionCenter___intersectionN intersectionN___intersectionNE"/>
    </vehicle>
    <vehicle id="68" depart="338.0" type="type1">
        <route edges="eastTop___intersectionNE intersectionNE___intersectionE intersectionE___intersectionSE intersectionSE___intersectionS intersectionS___intersectionSW intersectionSW___westBottom"/>
    </vehicle>
    <vehicle id="69" depart="343.0" type="type1">
        <route edges="northLeft___intersectionNW intersectionNW___intersectionW intersectionW___intersectionCenter intersectionCenter___intersectionE intersectionE___eastMiddle"/>
    </vehicle>
    <vehicle id="70" depart="343.0" type="type1">
        <route edges="intersectionSE___intersectionE intersectionE___intersectionNE intersectionNE___intersectionN intersectionN___northMiddle"/>
    </vehicle>
    <vehicle id="71" depart="344.0" type="type1">
        <route edges="intersectionE___intersectionSE intersectionSE___intersectionS intersectionS___southMiddle"/>
    </vehicle>
    <vehicle id="72" depart="347.0" type="type1">
        <route edges="intersectionN___intersectionNE intersectionNE___intersectionE intersectionE___intersectionSE"/>
    </vehicle>
    <vehicle id="73" depart="348.0" type="type1">
        <route edges="intersectionSW___intersectionS intersectionS___intersectionCenter intersectionCenter___intersectionW intersectionW___intersectionSW intersectionSW___southLeft"/>
    </vehicle>
    <vehicle id="74" depart="350.0" type="type1">
        <route edges="intersectionE___intersectionCenter intersectionCenter___intersectionN intersectionN___intersectionNE intersectionNE___northRight"/>
    </vehicle>
    <vehicle id="75" depart="350.0" type="type2">
        <route edges="westTop___intersectionNW intersectionNW___intersectionN intersectionN___intersectionNE intersectionNE___intersectionE intersectionE___intersectionSE intersectionSE___southRight"/>
    </vehicle>
    <vehicle id="76" depart="352.0" type="type1">
        <route edges="intersectionN___intersectionNE intersectionNE___intersectionE intersectionE___intersectionCenter intersectionCenter___intersectionN intersectionN___intersectionNW"/>
    </vehicle>
    <vehicle id="77" depart="354.0" type="type1">
        <route edges="intersectionCenter___intersectionN intersectionN___intersectionNE intersectionNE___eastTop"/>
    </vehicle>
    <vehicle id="78" depart="356.0" type="type1">
        <route edges="intersectionNW___intersectionN intersectionN___intersectionCenter intersectionCenter___intersectionS intersectionS___intersectionSE intersectionSE___intersectionE"/>
    </vehicle>
    <vehicle id="79" depart="357.0" type="type1">
        <route edges="intersectionE___intersectionNE intersectionNE___intersectionN intersectionN___intersectionCenter intersectionCenter___intersectionE intersectionE___intersectionSE"/>
    </vehicle>
    <vehicle id="80" depart="360.0" type="type1">
        <route edges="eastTop___intersectionNE intersectionNE___intersectionE intersectionE___intersectionSE intersectionSE___intersectionS"/>
    </vehicle>
    <vehicle id="81" depart="362.0" type="type1">
        <route edges="intersectionE___intersectionNE intersectionNE___intersectionN intersectionN___intersectionNW intersectionNW___intersectionW intersectionW___intersectionCenter"/>
    </vehicle>
    <vehicle id="82" depart="365.0" type="type2">
        <route edges="southLeft___intersectionSW intersectionSW___intersectionW intersectionW___intersectionCenter intersectionCenter___intersectionS"/>
    </vehicle>
    <vehicle id="83" depart="366.0" type="type1">
        <route edges="intersectionE___intersectionNE intersectionNE___intersectionN intersectionN___intersectionNW intersectionNW___intersectionW intersectionW___intersectionSW intersectionSW___intersectionS"/>
    </vehicle>
    <vehicle id="84" depart="369.0" type="type1">
        <route edges="intersectionE___intersectionCenter intersectionCenter___intersectionN intersectionN___intersectionNE intersectionNE___intersectionE intersectionE___eastMiddle"/>
    </vehicle>
    <vehicle id="85" depart="372.0" type="type1">
        <route edges="westBottom___intersectionSW intersectionSW___intersectionS intersectionS___intersectionSE intersectionSE___eastBottom"/>
    </vehicle>
    <vehicle id="86" depart="377.0" type="type1">
        <route edges="intersectionSE___intersectionE intersectionE___intersectionCenter intersectionCenter___intersectionW intersectionW___intersectionSW intersectionSW___intersectionS intersectionS___intersectionCenter"/>
    </vehicle>
    <vehicle id="87" depart="380.0" type="type1">
        <route edges="northRight___intersectionNE intersectionNE___intersectionN intersectionN___intersectionCenter intersectionCenter___intersectionE intersectionE___intersectionNE"/>
    </vehicle>
    <vehicle id="88" depart="385.0" type="type1">
        <route edges="intersectionCenter___intersectionE intersectionE___intersectionNE intersectionNE___intersectionN intersectionN___intersectionNW intersectionNW___westTop"/>
    </vehicle>
    <vehicle id="89" depart="389.0" type="type1">
        <route edges="intersectionN___intersectionNE intersectionNE___intersectionE intersectionE___intersectionCenter intersectionCenter___intersectionW intersectionW___intersectionNW intersectionNW___intersectionN intersectionN___intersectionCenter"/>
    </vehicle>
    <vehicle id="90" depart="389.0" type="type1">
        <route edges="intersectionW___intersectionSW intersectionSW___intersectionS"/>
    </vehicle>
    <vehicle id="91" depart="389.0" type="type1">
        <route edges="westTop___intersectionNW intersectionNW___intersectionN intersectionN___intersectionCenter intersectionCenter___intersectionW"/>
    </vehicle>
    <vehicle id="92" depart="389.0" type="type1">
        <route edges="intersectionN___intersectionCenter intersectionCenter___intersectionW intersectionW___intersectionNW intersectionNW___intersectionN"/>
    </vehicle>
    <vehicle id="93" depart="391.0" type="type1">
        <route edges="southMiddle___intersectionS intersectionS___intersectionCenter intersectionCenter___intersectionN intersectionN___intersectionNE intersectionNE___eastTop"/>
    </vehicle>
    <vehicle id="94" depart="392.0" type="type1">
        <route edges="intersectionCenter___intersectionW intersectionW___intersectionNW intersectionNW___intersectionN intersectionN___intersectionCenter"/>
    </vehicle>
    <vehicle id="95" depart="396.0" type="type1">
        <route edges="intersectionN___intersectionNE intersectionNE___intersectionE intersectionE___intersectionSE intersectionSE___intersectionS intersectionS___intersectionCenter intersectionCenter___intersectionE intersectionE___intersectionNE intersectionNE___intersectionN"/>
    </vehicle>
    <vehicle id="96" depart="399.0" type="type1">
        <route edges="intersectionE___intersectionNE intersectionNE___intersectionN intersectionN___intersectionCenter intersectionCenter___intersectionW intersectionW___intersectionNW"/>
    </vehicle>
    <vehicle id="97" depart="404.0" type="type1">
        <route edges="intersectionN___intersectionNE intersectionNE___intersectionE intersectionE___intersectionSE intersectionSE___intersectionS intersectionS___southMiddle"/>
    </vehicle>
    <vehicle id="98" depart="406.0" type="type1">
        <route edges="intersectionSW___intersectionS intersectionS___intersectionCenter intersectionCenter___intersectionN"/>
    </vehicle>
    <vehicle id="99" depart="408.0" type="type1">
        <route edges="westTop___intersectionNW intersectionNW___intersectionN intersectionN___intersectionCenter intersectionCenter___intersectionS intersectionS___intersectionSW"/>
    </vehicle>
    <vehicle id="100" depart="408.0" type="type2">
        <route edges="westMiddle___intersectionW intersectionW___intersectionNW"/>
    </vehicle>
    <vehicle id="101" depart="412.0" type="type1">
        <route edges="southLeft___intersectionSW intersectionSW___intersectionS intersectionS___intersectionSE intersectionSE___intersectionE intersectionE___intersectionCenter"/>
    </vehicle>
    <vehicle id="102" depart="415.0" type="type1">
        <route edges="intersectionSE___intersectionE intersectionE___intersectionCenter intersectionCenter___intersectionN intersectionN___intersectionNE intersectionNE___intersectionE intersectionE___intersectionSE"/>
    </vehicle>
    <vehicle id="103" depart="416.0" type="type1">
        <route edges="intersectionN___intersectionCenter intersectionCenter___intersectionS"/>
    </vehicle>
    <vehicle id="104" depart="416.0" type="type1">
        <route edges="intersectionNW___intersectionW intersectionW___westMiddle"/>
    </vehicle>
    <vehicle id="105" depart="417.0" type="type2">
        <route edges="intersectionE___intersectionSE intersectionSE___intersectionS intersectionS___intersectionCenter"/>
    </vehicle>
    <vehicle id="106" depart="418.0" type="type1">
        <route edges="intersectionN___intersectionNW intersectionNW___westTop"/>
    </vehicle>
    <vehicle id="107" depart="419.0" type="type1">
        <route edges="westMiddle___intersectionW intersectionW___intersectionNW intersectionNW___intersectionN intersectionN___intersectionCenter intersectionCenter___intersectionW intersectionW___westMiddle"/>
    </vehicle>
    <vehicle id="108" depart="422.0" type="type1">
        <route edges="intersectionSW___intersectionW"/>
    </vehicle>
    <vehicle id="109" depart="427.0" type="type1">
        <route edges="intersectionCenter___intersectionS intersectionS___intersectionSE intersectionSE___intersectionE intersectionE___intersectionNE intersectionNE___intersectionN"/>
    </vehicle>
    <vehicle id="110" depart="431.0" type="type1">
        <route edges="westMiddle___intersectionW intersectionW___intersectionCenter intersectionCenter___intersectionE intersectionE___intersectionSE intersectionSE___eastBottom"/>
    </vehicle>
    <vehicle id="111" depart="434.0" type="type1">
        <route edges="intersectionSW___intersectionS intersectionS___intersectionCenter intersectionCenter___intersectionW intersectionW___intersectionSW intersectionSW___southLeft"/>
    </vehicle>
    <vehicle id="112" depart="436.0" type="type1">
        <route edges="eastTop___intersectionNE intersectionNE___intersectionN intersectionN___intersectionCenter intersectionCenter___intersectionS intersectionS___intersectionSE intersectionSE___intersectionE"/>
    </vehicle>
    <vehicle id="113" depart="436.0" type="type1">
        <route edges="intersectionSE___intersectionS intersectionS___intersectionSW"/>
    </vehicle>
    <vehicle id="114" depart="443.0" type="type1">
        <route edges="intersectionCenter___intersectionS intersectionS___intersectionSE intersectionSE___intersectionE intersectionE___intersectionCenter intersectionCenter___intersectionW intersectionW___intersectionSW"/>
    </vehicle>
    <vehicle id="115" depart="444.0" type="type1">
        <route edges="eastTop___intersectionNE intersectionNE___intersectionN intersectionN___intersectionCenter intersectionCenter___intersectionE intersectionE___intersectionNE"/>
    </vehicle>
    <vehicle id="116" depart="446.0" type="type1">
        <route edges="intersectionS___intersectionCenter intersectionCenter___intersectionW intersectionW___intersectionSW intersectionSW___intersectionS"/>
    </vehicle>
    <vehicle id="117" depart="447.0" type="type1">
        <route edges="intersectionE___intersectionNE intersectionNE___intersectionN intersectionN___intersectionCenter intersectionCenter___intersectionE intersectionE___eastMiddle"/>
    </vehicle>
    <vehicle id="118" depart="450.0" type="type1">
        <route edges="southRight___intersectionSE intersectionSE___intersectionE intersectionE___intersectionNE intersectionNE___eastTop"/>
    </vehicle>
    <vehicle id="119" depart="450.0" type="type1">
        <route edges="intersectionS___intersectionCenter intersectionCenter___intersectionE intersectionE___intersectionSE intersectionSE___intersectionS"/>
    </vehicle>
    <vehicle id="120" depart="454.0" type="type1">
        <route edges="intersectionN___intersectionNE intersectionNE___intersectionE intersectionE___intersectionCenter intersectionCenter___intersectionS intersectionS___intersectionSE intersectionSE___intersectionE"/>
    </vehicle>
    <vehicle id="121" depart="455.0" type="type1">
        <route edges="intersectionSE___intersectionS intersectionS___intersectionSW intersectionSW___intersectionW intersectionW___intersectionNW"/>
    </vehicle>
    <vehicle id="122" depart="458.0" type="type1">
        <route edges="intersectionE___intersectionCenter intersectionCenter___intersectionS intersectionS___intersectionSW intersectionSW___intersectionW"/>
    </vehicle>
    <vehicle id="123" depart="459.0" type="type1">
        <route edges="intersectionE___intersectionNE intersectionNE___intersectionN intersectionN___intersectionNW intersectionNW___northLeft"/>
    </vehicle>
    <vehicle id="124" depart="460.0" type="type1">
        <route edges="intersectionW___intersectionCenter intersectionCenter___intersectionE intersectionE___intersectionNE intersectionNE___intersectionN"/>
    </vehicle>
    <vehicle id="125" depart="462.0" type="type1">
        <route edges="intersectionNE___intersectionN intersectionN___intersectionCenter intersectionCenter___intersectionS intersectionS___intersectionSW intersectionSW___westBottom"/>
    </vehicle>
    <vehicle id="126" depart="464.0" type="type1">