<?xml version="1.0" encoding="UTF-8"?>

<!-- generated on 2024-03-16 20:09:28 by Eclipse SUMO duarouter Version 1.12.0
<configuration xmlns:xsi="http://www.w3.org/2001/XMLSchema-instance" xsi:noNamespaceSchemaLocation="http://sumo.dlr.de/xsd/duarouterConfiguration.xsd">

    <input>
        <net-file value="nets/bo/network.net.xml"/>
        <route-files value="trips.trips.xml"/>
    </input>

    <output>
        <output-file value="nets/bo/generated_route.rou.xml"/>
        <alternatives-output value="nets/bo/generated_route.rou.alt.xml"/>
    </output>

    <time>
        <begin value="0"/>
        <end value="1000"/>
    </time>

    <report>
        <no-warnings value="true"/>
        <ignore-errors value="true"/>
        <no-step-log value="true"/>
    </report>

</configuration>
-->

<routes xmlns:xsi="http://www.w3.org/2001/XMLSchema-instance" xsi:noNamespaceSchemaLocation="http://sumo.dlr.de/xsd/routes_file.xsd">
    <vehicle id="0" depart="0.00">
        <route edges="a3 a2 a202 a34 a113 a118 a119 a116 a46 a201 a201c a204a[0] a124 b12 b56[0] b39[0] b39[1][0] b39[1][1][0] b46"/>
    </vehicle>
    <vehicle id="1" depart="0.00">
        <route edges="a211 a45 a44 a38 a15 a24 a22 a59 a53cd a53[0] a53[1][0] a79 a68 a11 b38[0] b38[0]a b38[1][0] b38[1][1] b38[1][1]a b56[1][0] b56[1][1] b5[1][0]+66 b5[1][1][1]"/>
    </vehicle>
    <vehicle id="2" depart="1.00">
        <route edges="a48 a42 a39 a35 a38 a15 a24 a22 a59 a53cd a53[0] a53[1][0] a79 a68 a11 b38[0] b38[0]a b38[1][0]"/>
    </vehicle>
    <vehicle id="3" depart="2.00">
        <route edges="a57[1] a62 a159 a42 a39 a35 a38 a15 a24 a22 a59 a53cd a53[0] a53[1][0] a79 a68 a11 b38[0] b38[0]a b37 b26 b26.-170 b15 b13[1] b4[0] b28 b28a"/>
    </vehicle>
    <vehicle id="4" depart="3.00">
        <route edges="a118 a119 a116 a46 a201 a201c a204a[0] a124 b12 b56[0] b56[1][0] b56[1][1] b5[1][0]+66 b5[1][1][1]"/>
    </vehicle>
    <vehicle id="5" depart="3.00">
        <route edges="a20002+89[1][0] a89[1][1] a91 a186 a109[0] a109[1][0]+20003 a109[1][1] a116 a46 a201 a201c a204a[0] a124"/>
    </vehicle>
    <vehicle id="6" depart="5.00">
        <route edges="b63[1] b4[0] b28 b28a b16[1] b18 b20+19a ba1[1] b1[1] a72[0] a72[1] a69 a161 a122 a3 a2 a202 a34 a113"/>
    </vehicle>
    <vehicle id="7" depart="6.00">
        <route edges="a109[1][1] a116 a46 a201 a201c a204a[0] a204b[0] a204[1][0] a204[1][1]"/>
    </vehicle>
    <vehicle id="9" depart="7.00">
        <route edges="a202 a34 a113 a118 a65 a57[0] a57[1] a62 a159 a42 a153 a87[0] a20001+87[1][0] a87[1][1] am90 a89[0] a20002+89[1][0] a89[1][1] a91 a173 a58[0]"/>
    </vehicle>
    <vehicle id="10" depart="8.00">
        <route edges="a16 a37 a36 a40 a93 a48 a42 a39 a35 a38 a15 a24 a22 a59 a53cd a53[0] a53[1][0] a79 a68 a11 b38[0] b38[0]a b38[1][0] b38[1][1] b38[1][1]a b56[1][0] b56[1][1] b5[1][0]+66"/>
    </vehicle>
    <vehicle id="11" depart="9.00">
        <route edges="a57[0] a57[1] a62 a159 a42 a153 a87[0] a20001+87[1][0] a87[1][1] am90 a171 a161 a122 a1b a1 a204a[0] a204b[0]"/>
    </vehicle>
    <vehicle id="12" depart="9.00">
        <route edges="a37 a36 a40 a93 a48 a42 a39 a35 a38 a15 a14 a9"/>
    </vehicle>
    <vehicle id="15" depart="19.00">
        <route edges="a220 a19 a22 a59 a53cd a53[0] a78[1][1] a189[0] a189[1][0]+20000 a189[1][1] a191 a17 a71 a67 a80"/>
    </vehicle>
    <vehicle id="16" depart="20.00">
        <route edges="b56[1][0] b34[0] b34[1][0] b36 b39[1][1][1] b45 a67 a80"/>
    </vehicle>
    <vehicle id="17" depart="21.00">
        <route edges="b51 b56[0] b39[0] b39[1][0] b39[1][1][0] b39[1][1][1] b45 a67 a80 a127 a77[1][0] a77ab a77bc a77cd a53cd a82 a51 a219 a218 a36 a40"/>
    </vehicle>
    <vehicle id="18" depart="24.00">
        <route edges="b5[1][1][1] b16[0] b16[1] b18 b20+19a ba1[1] b1[1] a72[0] a72[1] a69 a161 a122 a3 a2"/>
    </vehicle>
    <vehicle id="19" depart="25.00">
        <route edges="a87[1][1] a97 a42 a39 a35 a38 a15 a24 a22 a59 a53cd a53[0] a53[1][0] a79 a68 a11 b38[0] b38[0]a"/>
    </vehicle>
    <vehicle id="20" depart="25.00">
        <route edges="a203[0] b12 b56[0] b56[1][0] b56[1][1] b5[1][0]+66 b5[1][1][1] b16[0] b16[1] b18 b20+19a ba1[1] b1[1]"/>
    </vehicle>
    <vehicle id="21" depart="25.00">
        <route edges="a21b a20 a219 a218 a38 a15 a24 a22 a59 a53cd a53[0] a53[1][0] a79 a68 a11 b38[0] b38[0]a b37 b26 b26.-170 b17[0]"/>
    </vehicle>
    <vehicle id="22" depart="27.00">
        <route edges="b34[1][2] b26 b26.-170 b17[0] b17[1] b11[0] b33"/>
    </vehicle>
    <vehicle id="23" depart="27.00">
        <route edges="a79 a74 a72[1] a69 a161 a194 a91 a186 a109[0] a109[1][0]+20003 a109[1][1] a116"/>
    </vehicle>
    <vehicle id="24" depart="27.00">
        <route edges="a74 a72[1] a69 a161 a122 a1b a1 a204a[0] a124 b12 b56[0] b39[0] b39[1][0] b39[1][1][0] b37 b26 b26.-170 b15 b13[1]"/>
    </vehicle>
    <vehicle id="25" depart="28.00">
        <route edges="a124 b12 b56[0] b39[0] b39[1][0] b39[1][1][0] b37 b26 b26.-170 b17[0] b17[1] b11[0]"/>
    </vehicle>
    <vehicle id="26" depart="29.00">
        <route edges="a103 a16 a37 a36 a40 a153 a87[0] a20001+87[1][0] a87[1][1] am90 a171 a161 a122 a3 a2 a4 a4c"/>
    </vehicle>
    <vehicle id="27" depart="30.00">
        <route edges="a62 a159 a42 a39 a35 a38 a15 a24 a22 a59 a53cd a53[0]"/>
    </vehicle>
    <vehicle id="28" depart="32.00">
        <route edges="a36 a40 a93 a48 a42 a39 a35 a38 a15 a24 a22 a59 a53cd a53[0] a53[1][0] a79 a68 a11 b38[0] b38[0]a b37 b26 b26.-170 b15 b13[1] b4[0]"/>
    </vehicle>
    <vehicle id="29" depart="32.00">
        <route edges="a56b a77bc a77cd a53cd a53[0] a78[1][1] a189[0] a189[1][0]+20000 a189[1][1] a188 a87[0] a20001+87[1][0] a87[1][1] am90 a89[0] a20002+89[1][0] a89[1][1] a91 a186"/>
    </vehicle>
    <vehicle id="30" depart="32.00">
        <route edges="a189[1][1] a191 a17 a71"/>
    </vehicle>
    <vehicle id="31" depart="36.00">
        <route edges="b11[1][1] b101 b34[0] b34[1][0] b36 b39[1][1][1] b45 a67 a80 a127 a77[1][0] a77ab a77bc a77cd a53cd a53[0] a78[1][1] a189[0] a189[1][0]+20000 a189[1][1] a188 a87[0] a20001+87[1][0] a87[1][1] a97"/>
    </vehicle>
    <vehicle id="32" depart="39.00">
        <route edges="b55 b56[0] b39[0] b39[1][0] b39[1][1][0] b39[1][1][1] b45 b2[0] b2[1][0] b2[1][1][0] b2[1][1][1]"/>
    </vehicle>
    <vehicle id="33" depart="39.00">
        <route edges="a57[0] a57[1] a62 a159 a42 a39 a35 a38 a15 a24 a22 a59 a53cd a53[0] a53[1][0] a79 a68 a11 b38[0]"/>
    </vehicle>
    <vehicle id="34" depart="40.00">
        <route edges="a87[1][1] am90 a171 a161 a122 a3"/>
    </vehicle>
    <vehicle id="35" depart="40.00">
        <route edges="a203[1] a203[1]b a202 a34 a113 a118 a119 a116 a46 a201 a201c a204a[0] a124 b12 b56[0]"/>
    </vehicle>
    <vehicle id="36" depart="42.00">
        <route edges="a211 a45 a44 a36 a40 a153 a87[0] a20001+87[1][0] a87[1][1] am90 a171 a161 a122 a1b a1 a204a[0] a204b[0] a54"/>
    </vehicle>
    <vehicle id="37" depart="44.00">
        <route edges="b28 b28a b16[1] b18 b20+19a ba1[1] b1[1] a67 a80 a127 a77[1][0] a77ab a77bc a77cd a53cd a53[0] a78[1][1]"/>
    </vehicle>
    <vehicle id="38" depart="45.00">
        <route edges="b14 b18 b20+19a ba1[1] b1[1] a67 a80 a127 a77[1][0] a77ab a77bc a77cd a53cd a82 a51 a219 a218 a38 a33"/>
    </vehicle>
    <vehicle id="39" depart="45.00">
        <route edges="a65 a57[0] a57[1] a62 a159 a42 a153 a87[0] a20001+87[1][0] a87[1][1] am90 a171 a161 a122 a3"/>
    </vehicle>
    <vehicle id="40" depart="46.00">
        <route edges="a61 a58[0] a58[1] a197 a109[0] a109[1][0]+20003 a109[1][1] a120 a65 a57[0] a57[1] a62 a159 a42 a39 a35 a38 a33 a10 a13 a104 a16 a37"/>
    </vehicle>
    <vehicle id="41" depart="47.00">
        <route edges="a204a[0] a124 b12 b56[0] b39[0] b39[1][0] b39[1][1][0] b39[1][1][1] b45 a67 a80 a127 a77[1][0] a77ab a77bc a77cd a53cd a82 a51 a219"/>
    </vehicle>
    <vehicle id="42" depart="48.00">
        <route edges="a89[0] a20002+89[1][0] a89[1][1] a91 a186 a109[0] a109[1][0]+20003 a109[1][1] a116 a46 a201 a201c a204a[0] a124 b12 b56[0] b39[0] b39[1][0] b39[1][1][0] b46"/>
    </vehicle>
    <vehicle id="43" depart="51.00">
        <route edges="a77cd a53cd a53[0] a78[1][1] a189[0] a189[1][0]+20000 a189[1][1] a191 a69"/>
    </vehicle>
    <vehicle id="44" depart="51.00">
        <route edges="a195 a61 a58[0] a58[1] a66 a119 a116 a46 a201 a201c a204a[0] a204b[0] a204[1][0]"/>
    </vehicle>
    <vehicle id="45" depart="51.00">
        <route edges="a43[1] a201 a201c a204a[0] a124 b12 b56[0] b39[0] b39[1][0] b39[1][1][0] b39[1][1][1] b45 a67 a80 a127 a77[1][0] a77ab"/>
    </vehicle>
    <vehicle id="46" depart="51.00">
        <route edges="a203[0] b12 b56[0] b39[0] b39[1][0] b39[1][1][0] b46 a181 a18 a69 a161 a194 a91 a173 a58[0] a58[1]"/>
    </vehicle>
    <vehicle id="49" depart="57.00">
        <route edges="a43[1] a201 a201c a204a[0] a204b[0] a204[1][0]"/>
    </vehicle>
    <vehicle id="50" depart="58.00">
        <route edges="b13[1] b4[0] b28 b28a b16[1] b18 b20+19a ba1[1] b1[1] a72[0] a72[1] a69 a161 a122 a3 a2 a4"/>
    </vehicle>
    <vehicle id="51" depart="58.00">
        <route edges="a77cd a53cd a53[0] a78[1][1] a189[0] a189[1][0]+20000 a189[1][1] a191 a69 a161 a122 a3 a2 a202 a34"/>
    </vehicle>
    <vehicle id="52" depart="59.00">
        <route edges="ba1[1] b1[1] a67 a80 a127 a77[1][0] a77[1][1]"/>
    </vehicle>
    <vehicle id="54" depart="60.00">
        <route edges="a22 a59 a53cd a53[0] a78[1][1] a189[0] a189[1][0]+20000 a189[1][1] a191 a69 a161 a122 a3 a2 a202"/>
    </vehicle>
    <vehicle id="55" depart="60.00">
        <route edges="b22[1] ba1[1] b1[1] a67 a26"/>
    </vehicle>
    <vehicle id="56" depart="62.00">
        <route edges="b26.-170 b17[0] b17[1] b11[0] b5[1][1][1]"/>
    </vehicle>
    <vehicle id="57" depart="62.00">
        <route edges="b17[1] b11[0] b11[1][1] b101 b34[0] b34[1][0] b36 b46 a181 a18 a69 a161 a122 a1b"/>
    </vehicle>
    <vehicle id="58" depart="63.00">
        <route edges="b26 b26.-170 b18 b20+19a ba1[1] b1[1] a67 a80 a127 a77[1][0] a77ab a77bc a77cd a53cd a82 a51 a219"/>
    </vehicle>
    <vehicle id="59" depart="65.00">
        <route edges="a87[1][1] a97 a42 a39 a35 a38 a15 a24 a22 a59 a53cd a53[0] a53[1][0] a79 a68 a11 b2[0]"/>
    </vehicle>
    <vehicle id="60" depart="65.00">
        <route edges="a89[0] a20002+89[1][0] a89[1][1] a91 a186 a109[0] a109[1][0]+20003 a109[1][1] a116 a46 a201 a201c a204a[0] a124 b12 b56[0] b56[1][0] b56[1][1] b5[1][0]+66 b5[1][1][1] b8"/>
    </vehicle>
    <vehicle id="63" depart="69.00">
        <route edges="b20+19a ba1[1] b1[1] a72[0] a72[1] a69 a161"/>
    </vehicle>
    <vehicle id="65" depart="70.00">
        <route edges="a219 a218 a38 a15 a24 a22 a59 a53cd a53[0] a53[1][0] a79 a68 a11 b38[0] b38[0]a b38[1][0] b38[1][1] b38[1][1]a b56[1][0] b56[1][1]"/>
    </vehicle>
    <vehicle id="67" depart="70.00">
        <route edges="a15 a24 a22 a59 a53cd a53[0] a53[1][0] a53[1][1][0] a77[1][0] a77ab a77bc a21a a21b a103"/>
    </vehicle>
    <vehicle id="68" depart="71.00">
        <route edges="a212 a10 a13 a104 a16 a37 a36 a40 a41 a160 a61 a58[0] a58[1]"/>
    </vehicle>
    <vehicle id="69" depart="71.00">
        <route edges="a31 a201 a201c a204a[0] a124 b12 b56[0] b56[1][0] b56[1][1] b67"/>
    </vehicle>
    <vehicle id="70" depart="71.00">
        <route edges="a203[1]b a202 a34 a113 a118 a119 a116 a46 a201 a201c a204a[0] a124 b12 b56[0] b39[0] b39[1][0] b39[1][1][0] b39[1][1][1]"/>
    </vehicle>
    <vehicle id="71" depart="72.00">
        <route edges="a16 a37 a36 a40 a153 a87[0] a20001+87[1][0] a87[1][1] am90 a171 a161 a122"/>
    </vehicle>
    <vehicle id="72" depart="72.00">
        <route edges="a62 a159 a42 a39 a35 a38 a15 a24 a22 a59 a53cd a53[0] a78[1][1] a189[0] a189[1][0]+20000 a189[1][1] a191 a17 a71 a67 a80"/>
    </vehicle>
    <vehicle id="73" depart="73.00">
        <route edges="b17[0] b17[1] b11[0] b11[1][1] b101 b34[0] b34[1][0] b36 b46 a181 a18 a69 a161 a194 a91 a186"/>
    </vehicle>
    <vehicle id="74" depart="74.00">
        <route edges="b36 b38[1][0] b38[1][1] b38[1][1]a b56[1][0] b56[1][1] b5[1][0]+66"/>
    </vehicle>
    <vehicle id="75" depart="74.00">
        <route edges="a13 a104 a24 a22 a59 a53cd a53[0] a78[1][1] a189[0] a189[1][0]+20000 a189[1][1] a191 a69 a161 a122 a1b a1 a204a[0] a204b[0] a204[1][0] a204[1][1]"/>
    </vehicle>
    <vehicle id="76" depart="75.00">
        <route edges="a78[0] a56a am1 a21b a103 a49"/>
    </vehicle>
    <vehicle id="77" depart="77.00">
        <route edges="a89[0] a20002+89[1][0] a89[1][1] a91 a173 a62 a159 a42 a153 a87[0] a20001+87[1][0] a87[1][1] a97"/>
    </vehicle>
    <vehicle id="80" depart="80.00">
        <route edges="a87[1][1] a97 a42 a39 a35 a38 a15 a24 a22 a59 a53cd a82 a51"/>
    </vehicle>
    <vehicle id="81" depart="80.00">
        <route edges="a79 a74 a72[1] a69 a161 a194 a91 a186 a109[0] a109[1][0]+20003 a109[1][1] a120"/>
    </vehicle>
    <vehicle id="82" depart="81.00">
        <route edges="b65 b101 b34[0] b34[1][0] b36 b39[1][1][1] b45 a67 a80 a127 a77[1][0] a77ab a77bc a21a a21b a103 a14"/>
    </vehicle>
    <vehicle id="84" depart="82.00">
        <route edges="a204b[0] a204[1][0] a125 b12 b56[0] b39[0] b39[1][0] b39[1][1][0] b39[1][1][1] b45 a67 a80 a127"/>
    </vehicle>
    <vehicle id="85" depart="83.00">
        <route edges="a203[0] b12 b56[0] b39[0] b39[1][0] b39[1][1][0] b39[1][1][1] b45 a67 a80 a127 a77[1][0] a77[1][1]"/>
    </vehicle>
    <vehicle id="86" depart="85.00">
        <route edges="a186 a109[0] a109[1][0]+20003 a109[1][1] a120 a65 a57[0] a57[1] a62 a159 a42 a39 a35 a38 a50 a219 a218 a36 a40 a93 a48"/>
    </vehicle>
    <vehicle id="87" depart="86.00">
        <route edges="b17[1] b11[0] b11[1][1] b101 b34[0] b34[1][0] b36 b46 a181 a18 a69 a161 a194 a91 a186 a109[0] a109[1][0]+20003 a109[1][1] a120 a65 a57[0] a57[1]"/>
    </vehicle>
    <vehicle id="88" depart="87.00">
        <route edges="a11 b38[0] b38[0]a b46 a181 a18 a17 a71 a67 a80 a127 a77[1][0] a77ab a77bc a21a a21b"/>
    </vehicle>
    <vehicle id="89" depart="89.00">
        <route edges="a212 a10 a13 a104 a24 a22 a59 a53cd a53[0] a53[1][0] a79 a68 a11 b38[0] b38[0]a b38[1][0] b38[1][1] b39[1][0] b39[1][1][0]"/>
    </vehicle>
    <vehicle id="91" depart="94.00">
        <route edges="a204b[0] a204[1][0] a125 b12 b56[0] b56[1][0] b56[1][1] b67 b31"/>
    </vehicle>
    <vehicle id="92" depart="94.00">
        <route edges="a87[1][1] am90 a171 a161 a122 a1b a1 a204a[0] a124 b12 b56[0] b56[1][0] b34[0] b34[1][0]"/>
    </vehicle>
    <vehicle id="93" depart="95.00">
        <route edges="a197 a109[0] a109[1][0]+20003 a109[1][1] a120 a65 a57[0] a57[1] a62 a159 a42 a39 a35 a38 a33 a10 a13 a104 a16"/>
    </vehicle>
    <vehicle id="94" depart="95.00">
        <route edges="a20002+89[1][0] a89[1][1] a91 a186 a109[0] a109[1][0]+20003 a109[1][1] a116 a46 a201 a201c a204a[0] a124 b12 b56[0] b39[0] b39[1][0] b39[1][1][0] b46 a181"/>
    </vehicle>
    <vehicle id="95" depart="95.00">
        <route edges="a204b[0] a204[1][0] a125 b12 b56[0] b39[0] b39[1][0] b39[1][1][0] b46 a181 a18"/>
    </vehicle>
    <vehicle id="96" depart="96.00">
        <route edges="a120 a65 a197 a109[0] a109[1][0]+20003 a109[1][1] a116 a46 a201 a201c a204a[0] a124 b12 b56[0] b56[1][0] b56[1][1] b5[1][0]+66 b33"/>
    </vehicle>
    <vehicle id="97" depart="99.00">
        <route edges="a89[0] a20002+89[1][0] a89[1][1] a91 a173 a62 a159 a42 a39 a35 a38 a15 a24 a22 a59 a53cd a53[0] a53[1][0] a79 a68 a11 b38[0]"/>
    </vehicle>
    <vehicle id="98" depart="99.00">
        <route edges="b55 b56[0] b39[0] b39[1][0] b39[1][1][0] b39[1][1][1] b45 a67 a80 a127 a77[1][0] a77ab a77bc a77cd a53cd a53[0] a53[1][0] a53[1][1][0]"/>
    </vehicle>
    <vehicle id="100" depart="100.00">
        <route edges="a43[0] a118 a65 a57[0] a57[1] a62 a159 a42 a39 a35 a38 a50 a219 a218"/>
    </vehicle>
    <vehicle id="101" depart="102.00">
        <route edges="a77[1][0] a77ab a77bc a77cd a53cd a53[0] a53[1][0]"/>
    </vehicle>
    <vehicle id="102" depart="103.00">
        <route edges="a89[1][1] a91 a186 a109[0] a109[1][0]+20003 a109[1][1] a116 a46 a201 a201c a204a[0] a124 b12 b56[0] b39[0] b39[1][0] b96 b49[1]"/>
    </vehicle>
    <vehicle id="103" depart="104.00">
        <route edges="b25 b23 b15 b14 b18 b20+19a ba1[1] b1[1] a67 a80 a127 a77[1][0] a77ab a77bc a21a a21b a103 a14 a9"/>
    </vehicle>
    <vehicle id="104" depart="104.00">
        <route edges="a109[1][0]+20003 a109[1][1] a120 a65 a57[0] a57[1] a62 a159 a42 a153 a87[0] a20001+87[1][0] a87[1][1] am90 a171 a161 a122 a3 a2 a202"/>
    </vehicle>
    <vehicle id="105" depart="105.00">
        <route edges="b16[0] b30 b31 b11[1][1] b101 b34[0] b34[1][0] b36 b39[1][1][1]"/>
    </vehicle>
    <vehicle id="106" depart="106.00">
        <route edges="a87[0] a20001+87[1][0] a87[1][1] am90 a89[0] a20002+89[1][0] a89[1][1] a91 a186 a109[0]"/>
    </vehicle>
    <vehicle id="107" depart="108.00">
        <route edges="b2[0] b34[1][2] b36 b38[1][0] b38[1][1] b39[1][0] b39[1][1][0] b37"/>
    </vehicle>
    <vehicle id="108" depart="109.00">
        <route edges="a80 a127 a77[1][0] a77ab a77bc a77cd a53cd a53[0] a53[1][0] a79 a68 a11 b2[0]"/>
    </vehicle>
    <vehicle id="109" depart="109.00">
        <route edges="a189[1][1] a191 a69"/>
    </vehicle>
    <vehicle id="110" depart="110.00">
        <route edges="a53[1][0] a53[1][1][0] a77[1][0] a77ab a77bc a77cd a53cd a82 a51 a219"/>
    </vehicle>
    <vehicle id="111" depart="111.00">
        <route edges="ba1[1] b1[1] a67 a80 a127 a77[1][0] a77ab a77bc a77cd a53cd a53[0] a53[1][0]"/>
    </vehicle>
    <vehicle id="113" depart="112.00">
        <route edges="a57[1] a62 a159 a42 a39 a35 a38 a50 a219 a218 a36 a40 a93 a48"/>
    </vehicle>
    <vehicle id="114" depart="114.00">
        <route edges="a224[0] a224[1] a181 a18 a17 a71 a67 a80 a127 a77[1][0] a77ab a77bc a77cd a53cd a82 a51 a219 a218 a36 a40 a153"/>
    </vehicle>
    <vehicle id="115" depart="114.00">
        <route edges="a188 a87[0] a20001+87[1][0] a87[1][1] a97 a42 a39 a35 a38 a50 a219 a218 a36 a40 a93 a48"/>
    </vehicle>
    <vehicle id="116" depart="114.00">
        <route edges="a65 a57[0] a57[1] a62 a159 a42 a39 a35 a38 a15 a24 a22 a59 a53cd a53[0] a53[1][0] a79 a68 a11 b38[0] b38[0]a b37 b26 b26.-170 b15 b13[1]"/>
    </vehicle>
    <vehicle id="117" depart="114.00">
        <route edges="a43[0] a43[1] a201 a201c a204a[0] a124 b12 b56[0] b39[0] b39[1][0] b39[1][1][0] b39[1][1][1] b45 b2[0]"/>
    </vehicle>
    <vehicle id="118" depart="117.00">
        <route edges="a113 a118 a119 a116 a46 a134"/>
    </vehicle>
    <vehicle id="119" depart="118.00">
        <route edges="a203[1]b a202 a34 a113 a118 a65 a57[0] a57[1] a62 a159 a42 a39 a35 a38 a33 a10 a13 a104 a16"/>
    </vehicle>
    <vehicle id="120" depart="118.00">
        <route edges="b2[1][0] b24 b23 b17[0] b17[1] b8 b3[1]"/>
    </vehicle>
    <vehicle id="121" depart="118.00">
        <route edges="b38[0]a b46 a181 a18 a69 a161 a122 a1b a1"/>
    </vehicle>
    <vehicle id="122" depart="122.00">
        <route edges="b45 a67 a80 a127 a77[1][0] a77ab a77bc a77cd a53cd a53[0] a78[1][1] a189[0] a189[1][0]+20000 a189[1][1] a188 a87[0] a20001+87[1][0] a87[1][1] am90 a89[0] a20002+89[1][0] a89[1][1] a91 a186 a109[0] a109[1][0]+20003 a109[1][1] a120 a65 a57[0]"/>
    </vehicle>
    <vehicle id="123" depart="123.00">
        <route edges="a118 a65 a57[0] a57[1] a62 a159 a42 a39 a35 a38 a15 a24 a22 a59 a53cd a53[0] a78[1][1] a189[0] a189[1][0]+20000 a189[1][1] a191 a69"/>
    </vehicle>
    <vehicle id="124" depart="124.00">
        <route edges="am1 a21b a20 a219 a218 a36 a40 a153 a87[0] a20001+87[1][0] a87[1][1] am90 a89[0] a20002+89[1][0] a89[1][1] a91 a186 a109[0] a109[1][0]+20003 a109[1][1] a120 a65"/>
    </vehicle>
    <vehicle id="125" depart="127.00">
        <route edges="a53[1][0] a53[1][1][0] a77[1][0] a77ab a77bc a77cd a53cd a53[0] a78[1][1] a189[0] a189[1][0]+20000 a189[1][1] a188 a87[0] a20001+87[1][0] a87[1][1] am90 a89[0] a20002+89[1][0] a89[1][1] a91 a186 a109[0] a109[1][0]+20003 a109[1][1] a116 a46 a113 a118"/>
    </vehicle>
    <vehicle id="126" depart="127.00">
        <route edges="a206 a32 a35 a38 a15 a24 a22 a59 a53cd a53[0] a78[1][1] a189[0] a189[1][0]+20000 a189[1][1] a191 a17"/>
    </vehicle>
    <vehicle id="127" depart="128.00">
        <route edges="a218 a38 a15 a24 a22 a59 a53cd a53[0] a53[1][0] a79 a68 a11 b38[0] b38[0]a b46"/>
    </vehicle>
    <vehicle id="128" depart="130.00">
        <route edges="a61 a58[0] a58[1] a197 a109[0] a109[1][0]+20003 a109[1][1]"/>
    </vehicle>
    <vehicle id="129" depart="130.00">
        <route edges="am90 a171 a161 a122 a1b a1 a204a[0] a124 b12 b56[0] b56[1][0] b34[0]"/>
    </vehicle>
    <vehicle id="130" depart="130.00">
        <route edges="b20+19a ba1[1] b1[1] a67 a80 a127 a77[1][0] a77ab a77bc a77cd a53cd a82 a51 a219 a218 a38 a15 a24"/>
    </vehicle>
    <vehicle id="131" depart="131.00">
        <route edges="a104 a16 a37 a36 a40 a93 a48"/>
    </vehicle>
    <vehicle id="132" depart="133.00">
        <route edges="a20002+89[1][0] a89[1][1] a91 a173 a62 a159 a42 a39 a35 a38 a15 a24 a22 a59 a53cd a53[0] a53[1][0] a79 a68 a11 b38[0] b38[0]a b38[1][0] b38[1][1]"/>
    </vehicle>
    <vehicle id="133" depart="134.00">
        <route edges="a16 a37 a36 a40 a93 a48 a42 a39 a35 a38 a15 a24 a22 a59 a53cd a53[0] a53[1][0] a79 a68 a11 b38[0] b38[0]a b38[1][0] b38[1][1] b38[1][1]a b56[1][0] b56[1][1] b5[1][0]+66"/>
    </vehicle>
    <vehicle id="134" depart="135.00">
        <route edges="b11[1][1] b101 b34[0] b34[1][0] b36 b39[1][1][1] b45 a67 a80 a127 a77[1][0] a77ab a77bc a77cd a53cd a53[0] a78[1][1] a189[0] a189[1][0]+20000 a189[1][1] a188"/>
    </vehicle>
    <vehicle id="135" depart="135.00">
        <route edges="b56[1][1] b5[1][0]+66 b11[1][1] b101 b34[0] b34[1][0] b36 b39[1][1][1] b45 a67 a80 a127 a77[1][0] a77ab a77bc a77cd a53cd a82 a51 a19 a22"/>
    </vehicle>
    <vehicle id="136" depart="136.00">
        <route edges="b1[1] a67 a80 a127 a77[1][0] a77ab a77bc a21a a21b a103 a49"/>
    </vehicle>
    <vehicle id="137" depart="137.00">
        <route edges="a59 a53cd a53[0] a78[1][1] a189[0] a189[1][0]+20000 a189[1][1] a188 a87[0] a20001+87[1][0] a87[1][1] am90 a89[0] a20002+89[1][0] a89[1][1] a91 a173 a58[0]"/>
    </vehicle>
    <vehicle id="138" depart="138.00">
        <route edges="a56a a56b a77bc a77cd a53cd a53[0] a53[1][0] a79 a68 a11 b38[0] b38[0]a b46 a181 a18"/>
    </vehicle>
    <vehicle id="139" depart="141.00">
        <route edges="a195 a159 a42 a153 a87[0] a20001+87[1][0] a87[1][1] am90 a89[0] a20002+89[1][0] a89[1][1]"/>
    </vehicle>
    <vehicle id="140" depart="141.00">
        <route edges="b26.-170 b18 b20+19a ba1[1] b1[1] a72[0] a72[1] a69 a161 a194 a91 a173"/>
    </vehicle>
    <vehicle id="141" depart="142.00">
        <route edges="a124 b12 b56[0] b39[0] b39[1][0] b39[1][1][0] b39[1][1][1] b45 b2[0] b2[1][0] b2[1][1][0]"/>
    </vehicle>
    <vehicle id="142" depart="142.00">
        <route edges="b39[1][1][0] b46 a181 a18 a69 a161 a122 a3 a2 a202 a34"/>
    </vehicle>
    <vehicle id="143" depart="143.00">
        <route edges="b31 b11[1][1] b101 b34[0] b34[1][0] b36 b39[1][1][1] b45 a67 a80 a127 a77[1][0] a77ab a77bc a21a a21b a103 a14 a9 a211"/>
    </vehicle>
    <vehicle id="144" depart="146.00">
        <route edges="a1 a204a[0] a124 b12 b56[0] b39[0] b39[1][0] b39[1][1][0] b39[1][1][1] b45 b2[0] b2[1][0] b24"/>
    </vehicle>
    <vehicle id="145" depart="150.00">
        <route edges="b38[1][1]a b56[1][0] b34[0] b34[1][0] b36 b39[1][1][1] b45 a67 a80 a127 a77[1][0] a77ab a77bc a77cd a53cd a82"/>
    </vehicle>
    <vehicle id="146" depart="151.00">
        <route edges="b13[0] b14 b17[0] b17[1] b8 b3[1]"/>
    </vehicle>
    <vehicle id="147" depart="151.00">
        <route edges="a53[1][1][0] a77[1][0] a77ab a77bc a77cd a53cd a53[0] a78[1][1] a189[0] a189[1][0]+20000 a189[1][1] a188 a87[0] a20001+87[1][0] a87[1][1] am90 a89[0] a20002+89[1][0] a89[1][1] a91 a186 a109[0] a109[1][0]+20003 a109[1][1] a120 a65 a200 a60"/>
    </vehicle>
    <vehicle id="148" depart="152.00">
        <route edges="a25 a68 a11 b2[0]"/>
    </vehicle>
    <vehicle id="149" depart="154.00">
        <route edges="a39 a35 a38 a15 a24 a22 a59 a53cd a53[0] a53[1][0] a79 a68 a11 b38[0] b38[0]a b38[1][0] b96 b49[1] b55 b56[0]"/>
    </vehicle>
    <vehicle id="150" depart="156.00">
        <route edges="b45 b2[0] b2[1][0] b24 b23 b17[0] b17[1] b8"/>
    </vehicle>
    <vehicle id="151" depart="156.00">
        <route edges="a202 a34 a113 a118 a65 a57[0] a57[1] a62 a159 a42"/>
    </vehicle>
    <vehicle id="152" depart="156.00">
        <route edges="b39[1][1][1] b45 a67 a80 a127 a77[1][0] a77ab a77bc a77cd a53cd a82 a51 a219 a218 a36 a40 a93 a48"/>
    </vehicle>
    <vehicle id="153" depart="158.00">
        <route edges="a224[0] a224[1] a181 a18 a69 a161 a194 a91 a173 a58[0]"/>
    </vehicle>
    <vehicle id="154" depart="158.00">
        <route edges="b52 b51 b56[0] b39[0] b39[1][0] b39[1][1][0] b39[1][1][1] b45 a67 a80 a127 a77[1][0] a77ab a77bc a77cd a53cd a53[0] a78[1][1] a189[0] a189[1][0]+20000 a189[1][1] a188 a87[0] a20001+87[1][0] a87[1][1] a97 a42"/>
    </vehicle>
    <vehicle id="155" depart="159.00">
        <route edges="b97 b38[1][1]a b56[1][0] b56[1][1] b5[1][0]+66 b33"/>
    </vehicle>
    <vehicle id="156" depart="159.00">
        <route edges="b12 b56[0] b39[0] b39[1][0] b39[1][1][0] b46 a181 a18 a69 a161 a194 a91 a186"/>
    </vehicle>
    <vehicle id="157" depart="161.00">
        <route edges="b67 b31 b11[1][1] b101 b34[0] b34[1][0] b36 b46 a181 a18 a69 a161"/>
    </vehicle>
    <vehicle id="158" depart="161.00">
        <route edges="b67 b31 b11[1][1] b101 b34[0] b34[1][0] b36 b39[1][1][1] b45 a67 a80 a127 a77[1][0] a77ab a77bc a21a a21b a103 a14 a9 a211 a45 a206 a32"/>
    </vehicle>
    <vehicle id="159" depart="161.00">
        <route edges="a15 a24 a22 a59 a53cd a53[0] a53[1][0] a79 a68 a11 b38[0] b38[0]a b38[1][0] b38[1][1] b38[1][1]a"/>
    </vehicle>
    <vehicle id="161" depart="163.00">
        <route edges="a104 a24 a22 a59 a53cd a53[0] a53[1][0] a79 a68 a11 b38[0] b38[0]a b46 a181 a18"/>
    </vehicle>
    <vehicle id="163" depart="163.00">
        <route edges="a125 b12 b56[0] b39[0] b39[1][0] b39[1][1][0] b39[1][1][1] b45 b2[0] b2[1][0] b2[1][1][0] b2[1][1][1] b2[1][1][1]b"/>
    </vehicle>
    <vehicle id="165" depart="165.00">
        <route edges="a42 a39 a35 a38 a15 a24 a22 a59 a53cd a53[0] a78[1][1] a189[0] a189[1][0]+20000 a189[1][1] a191 a17 a71 a67 a80 a127"/>
    </vehicle>
    <vehicle id="166" depart="166.00">
        <route edges="a24 a22 a59 a53cd a53[0] a53[1][0] a79 a68 a11 b38[0] b38[0]a b38[1][0] b38[1][1] b38[1][1]a b56[1][0] b56[1][1] b5[1][0]+66 b5[1][1][1] b16[0]"/>
    </vehicle>
    <vehicle id="167" depart="166.00">
        <route edges="a74 a72[1] a69 a161 a122 a1b a1 a204a[0] a124 b12 b56[0] b56[1][0] b56[1][1] b5[1][0]+66 b5[1][1][1]"/>
    </vehicle>
    <vehicle id="169" depart="168.00">
        <route edges="a61 a58[0] a58[1] a197 a109[0] a109[1][0]+20003 a109[1][1] a120 a65 a57[0] a57[1] a62 a159 a42 a39 a35 a38 a15 a24 a22 a59 a53cd a53[0] a78[1][1] a75"/>
    </vehicle>
    <vehicle id="171" depart="169.00">
        <route edges="b17[0] b17[1] b11[0] b11[1][1] b101 b34[0] b34[1][0] b36 b39[1][1][1] b45 a67 a80 a127 a77[1][0] a77ab a77bc a21a a21b"/>
    </vehicle>
    <vehicle id="172" depart="170.00">
        <route edges="a201 a201c a204a[0] a124 b12 b56[0] b39[0] b39[1][0] b39[1][1][0] b46 a181 a18 a69 a161 a122 a3 a2 a202 a34 a134"/>
    </vehicle>
    <vehicle id="174" depart="175.00">
        <route edges="b1[1] a67 a80 a127 a77[1][0] a77ab a77bc a77cd a53cd a82 a51 a219 a218 a38 a15"/>
    </vehicle>
    <vehicle id="176" depart="180.00">
        <route edges="a109[1][1] a120 a65 a57[0] a57[1] a62 a159 a42 a153 a87[0] a20001+87[1][0] a87[1][1] am90 a171 a161 a122 a3"/>
    </vehicle>
    <vehicle id="177" depart="181.00">
        <route edges="a119 a116 a46 a113 a118 a65 a57[0] a57[1] a62 a159 a42 a39 a35 a38"/>
    </vehicle>
    <vehicle id="178" depart="182.00">
        <route edges="a51 a19 a22 a59 a53cd a53[0] a78[1][1] a189[0] a189[1][0]+20000 a189[1][1] a191 a69 a161 a122 a1b a1 a204a[0] a204b[0] a204[1][0]"/>
    </vehicle>
    <vehicle id="179" depart="182.00">
        <route edges="a45 a44 a38 a15 a24 a22 a59 a53cd a53[0] a53[1][0] a79 a68 a11 b38[0] b38[0]a b38[1][0] b38[1][1] b38[1][1]a b56[1][0] b56[1][1] b5[1][0]+66 b5[1][1][1] b16[0] b16[1]"/>
    </vehicle>
    <vehicle id="180" depart="183.00">
        <route edges="a19"/>
    </vehicle>
    <vehicle id="181" depart="186.00">
        <route edges="a91 a173 a62 a159 a42"/>
    </vehicle>
    <vehicle id="182" depart="187.00">
        <route edges="b16[1] b18 b20+19a ba1[1] b1[1] a72[0] a72[1] a69 a161 a194 a91 a173 a62"/>
    </vehicle>
    <vehicle id="185" depart="194.00">
        <route edges="b14 b17[0] b29[0] b29[1] b4[1][1][0]"/>
    </vehicle>
    <vehicle id="186" depart="194.00">
        <route edges="a57[0] a57[1] a62 a159 a42 a39 a35 a38 a15 a24 a22 a59 a53cd a53[0] a53[1][0] a53[1][1][0] a77[1][0] a77ab a77bc a21a a21b"/>
    </vehicle>
    <vehicle id="187" depart="194.00">
        <route edges="a77ab a77bc a77cd a53cd a53[0] a78[1][1] a189[0] a189[1][0]+20000 a189[1][1] a191 a69 a161 a122 a1b a1 a204a[0] a204b[0] a204[1][0] a125"/>
    </vehicle>
    <vehicle id="188" depart="196.00">
        <route edges="b5[1][1][1] b16[0] b16[1] b18 b20+19a ba1[1] b1[1] a72[0] a72[1] a69 a161 a122 a1b a1 a204a[0] a124 b12 b50[0] b97"/>
    </vehicle>
    <vehicle id="189" depart="196.00">
        <route edges="a21b a20 a219 a218 a38 a15 a24 a22 a59 a53cd a53[0] a53[1][0] a79 a68 a11 b38[0] b38[0]a b38[1][0] b38[1][1] b38[1][1]a b56[1][0] b56[1][1] b64"/>
    </vehicle>
    <vehicle id="191" depart="197.00">