<additional>
<e1Detector id="a104_0" lane="a104_0" pos="23" freq="1800" file="e1_output.xml" />
<e1Detector id="a104_1" lane="a104_1" pos="23" freq="1800" file="e1_output.xml" />
<e1Detector id="a15_0" lane="a15_0" pos="77.542050042" freq="1800" file="e1_output.xml" />
<e1Detector id="a103_0" lane="a103_0" pos="118" freq="1800" file="e1_output.xml" />
<e1Detector id="a103_1" lane="a103_1" pos="118" freq="1800" file="e1_output.xml" />


<e1Detector id="a72[0]_0" lane="a72[0]_0" pos="32.8995678051" freq="1800" file="e1_output.xml" />
<e1Detector id="a72[0]_1" lane="a72[0]_1" pos="32.8995678051" freq="1800" file="e1_output.xml" />
<e1Detector id="a72[0]_2" lane="a72[0]_2" pos="32.8995678051" freq="1800" file="e1_output.xml" />
<e1Detector id="a11_0" lane="a11_0" pos="0" freq="1800" file="e1_output.xml" />
<e1Detector id="a11_1" lane="a11_1" pos="0" freq="1800" file="e1_output.xml" />
<e1Detector id="a11_2" lane="a11_2" pos="0" freq="1800" file="e1_output.xml" />
<e1Detector id="a67_0" lane="a67_0" pos="42" freq="1800" file="e1_output.xml" />
<e1Detector id="a67_1" lane="a67_1" pos="42" freq="1800" file="e1_output.xml" />
<e1Detector id="b46_0" lane="b46_0" pos="105" freq="1800" file="e1_output.xml" />



<e1Detector id="a17_0" lane="a17_0" pos="100" freq="1800" file="e1_output.xml" />
<e1Detector id="a17_1" lane="a17_1" pos="100" freq="1800" file="e1_output.xml" />
<e1Detector id="a18_0" lane="a18_0" pos="1" freq="1800" file="e1_output.xml" />
<e1Detector id="a18_1" lane="a18_1" pos="1" freq="1800" file="e1_output.xml" />

<e1Detector id="a161_0" lane="a161_0" pos="20" freq="1800" file="e1_output.xml" />
<e1Detector id="a161_1" lane="a161_1" pos="20" freq="1800" file="e1_output.xml" />
<e1Detector id="a161_2" lane="a161_2" pos="20" freq="1800" file="e1_output.xml" />
<e1Detector id="a171_0" lane="a171_0" pos="166" freq="1800" file="e1_output.xml" />


<e1Detector id="a191_0" lane="a191_0" pos="12" freq="1800" file="e1_output.xml" />
<e1Detector id="a87[1][1]_0" lane="a87[1][1]_0" pos="0" freq="1800" file="e1_output.xml" />
<e1Detector id="a153_0" lane="a153_0" pos="208.488866169" freq="1800" file="e1_output.xml" />
<e1Detector id="a189[1][1]_0" lane="a189[1][1]_0" pos="142" freq="1800" file="e1_output.xml" />


<e1Detector id="a210_0" lane="a210_0" pos="10.6430697599" freq="1800" file="e1_output.xml" />
<e1Detector id="a210_1" lane="a210_1" pos="10.6430697599" freq="1800" file="e1_output.xml" />
<e1Detector id="a210_2" lane="a210_2" pos="10.6430697599" freq="1800" file="e1_output.xml" />


<e1Detector id="a117_0" lane="a117_0" pos="105" freq="1800" file="e1_output.xml" />
<e1Detector id="a113_0" lane="a113_0" pos="23.5161227555" freq="1800" file="e1_output.xml" />
<e1Detector id="a113_1" lane="a113_1" pos="23.5161227555" freq="1800" file="e1_output.xml" />
<e1Detector id="a113_2" lane="a113_2" pos="23.5161227555" freq="1800" file="e1_output.xml" />
<e1Detector id="a201_0" lane="a201_0" pos="11.5139549672" freq="1800" file="e1_output.xml" />
<e1Detector id="a201_1" lane="a201_1" pos="11.5139549672" freq="1800" file="e1_output.xml" />
<e1Detector id="a201_2" lane="a201_2" pos="11.5139549672" freq="1800" file="e1_output.xml" />
<e1Detector id="a134b_0" lane="a134b_0" pos="145" freq="1800" file="e1_output.xml" />



<e1Detector id="a202_0" lane="a202_0" pos="75" freq="1800" file="e1_output.xml" />
<e1Detector id="a202_1" lane="a202_1" pos="75" freq="1800" file="e1_output.xml" />
<e1Detector id="a202_2" lane="a202_2" pos="75" freq="1800" file="e1_output.xml" />
<e1Detector id="a204a[0]_0" lane="a204a[0]_0" pos="7.20261067361" freq="1800" file="e1_output.xml" />
<e1Detector id="a204a[0]_1" lane="a204a[0]_1" pos="7.20261067361" freq="1800" file="e1_output.xml" />
<e1Detector id="a204a[0]_2" lane="a204a[0]_2" pos="7.20261067361" freq="1800" file="e1_output.xml" />


<e1Detector id="a204[1][1]_0" lane="a204[1][1]_0" pos="36" freq="1800" file="e1_output.xml" />
<e1Detector id="a204[1][1]_1" lane="a204[1][1]_1" pos="36" freq="1800" file="e1_output.xml" />
<e1Detector id="a204[1][1]_2" lane="a204[1][1]_2" pos="36" freq="1800" file="e1_output.xml" />
<e1Detector id="a54_0" lane="a54_0" pos="11.6007252321" freq="1800" file="e1_output.xml" />
<e1Detector id="a54_1" lane="a54_1" pos="11.6007252321" freq="1800" file="e1_output.xml" />
<e1Detector id="a203[1]_0" lane="a203[1]_0" pos="220" freq="1800" file="e1_output.xml" />
<e1Detector id="a203[1]_1" lane="a203[1]_1" pos="220" freq="1800" file="e1_output.xml" />
<e1Detector id="a203[1]_2" lane="a203[1]_2" pos="220" freq="1800" file="e1_output.xml" />

<e1Detector id="b12_0" lane="b12_0" pos="11.3754906176" freq="1800" file="e1_output.xml" />
<e1Detector id="b12_1" lane="b12_1" pos="11.3754906176" freq="1800" file="e1_output.xml" />
<e1Detector id="b12_2" lane="b12_2" pos="11.3754906176" freq="1800" file="e1_output.xml" />


<e1Detector id="b51_0" lane="b51_0" pos="42" freq="1800" file="e1_output.xml" />
<e1Detector id="b51_1" lane="b51_1" pos="42" freq="1800" file="e1_output.xml" />
<e1Detector id="b53_0" lane="b53_0" pos="18" freq="1800" file="e1_output.xml" />
<e1Detector id="b35[1][1][1][1]_0" lane="b35[1][1][1][1]_0" pos="0" freq="1800" file="e1_output.xml" />
<e1Detector id="b55_0" lane="b55_0" pos="73" freq="1800" file="e1_output.xml" />
<e1Detector id="b50[0]_0" lane="b50[0]_0" pos="19" freq="1800" file="e1_output.xml" />
<e1Detector id="b56[0]_0" lane="b56[0]_0" pos="10." freq="1800" file="e1_output.xml" />
<e1Detector id="b56[0]_1" lane="b56[0]_1" pos="10." freq="1800" file="e1_output.xml" />

<e1Detector id="b101_0" lane="b101_0" pos="14.7630542185" freq="1800" file="e1_output.xml" />
<e1Detector id="b71_0" lane="b71_0" pos="0" freq="1800" file="e1_output.xml" />
<e1Detector id="b65_0" lane="b65_0" pos="162" freq="1800" file="e1_output.xml" />
<e1Detector id="b31_0" lane="b31_0" pos="153" freq="1800" file="e1_output.xml" />
<e1Detector id="b17[1]_0" lane="b17[1]_0" pos="160" freq="1800" file="e1_output.xml" />
<e1Detector id="b8_0" lane="b8_0" pos="1.7" freq="1800" file="e1_output.xml" />
<e1Detector id="b8_1" lane="b8_1" pos="1.7" freq="1800" file="e1_output.xml" />
<e1Detector id="b8_2" lane="b8_2" pos="1.7" freq="1800" file="e1_output.xml" />
<e1Detector id="b8_3" lane="b8_3" pos="1.7" freq="1800" file="e1_output.xml" />

<e1Detector id="b4[1][1][1]_0" lane="b4[1][1][1]_0" pos="36.7357969861" freq="1800" file="e1_output.xml" />
<e1Detector id="b4[1][1][1]_1" lane="b4[1][1][1]_1" pos="36.7357969861" freq="1800" file="e1_output.xml" />
<e1Detector id="b3[0]_0" lane="b3[0]_0" pos="137.4601581707" freq="1800" file="e1_output.xml" />
<e1Detector id="b3[0]_1" lane="b3[0]_1" pos="137.4601581707" freq="1800" file="e1_output.xml" />
<e1Detector id="b4[1][1][0]_0" lane="b4[1][1][0]_0" pos="143" freq="1800" file="e1_output.xml" />
<e1Detector id="b4[1][1][0]_1" lane="b4[1][1][0]_1" pos="143" freq="1800" file="e1_output.xml" />
<e1Detector id="b10_0" lane="b10_0" pos="30" freq="1800" file="e1_output.xml" />
<e1Detector id="b9_0" lane="b9_0" pos="56.8078174024" freq="1800" file="e1_output.xml" />

<e1Detector id="b16[1]_0" lane="b16[1]_0" pos="196" freq="1800" file="e1_output.xml" />
<e1Detector id="b26.-170_0" lane="b26.-170_0" pos="150" freq="1800" file="e1_output.xml" />

<e1Detector id="b18_0" lane="b18_0" pos="15.9248731148" freq="1800" file="e1_output.xml" />

<e1Detector id="b14_0" lane="b14_0" pos="295" freq="1800" file="e1_output.xml" />


<e1Detector id="b38[1][0]_0" lane="b38[1][0]_0" pos="9.72072259695" freq="1800" file="e1_output.xml" />

<e1Detector id="b36_0" lane="b36_0" pos="156" freq="1800" file="e1_output.xml" />


<e1Detector id="b2[0]_0" lane="b2[0]_0" pos="31.3626881232" freq="1800" file="e1_output.xml" />
<e1Detector id="b2[0]_1" lane="b2[0]_1" pos="31.3626881232" freq="1800" file="e1_output.xml" />
<e1Detector id="b2[0]_2" lane="b2[0]_2" pos="31.3626881232" freq="1800" file="e1_output.xml" />


<e1Detector id="b18_0" lane="b18_0" pos="140" freq="1800" file="e1_output.xml" />

<e1Detector id="b23_0" lane="b23_0" pos="18" freq="1800" file="e1_output.xml" />
<e1Detector id="b23_1" lane="b23_1" pos="18" freq="1800" file="e1_output.xml" />
<e1Detector id="b1[1]_0" lane="b1[1]_0" pos="80" freq="1800" file="e1_output.xml" />
<e1Detector id="b1[1]_1" lane="b1[1]_1" pos="80" freq="1800" file="e1_output.xml" />
<e1Detector id="b1[1]_2" lane="b1[1]_2" pos="80" freq="1800" file="e1_output.xml" />
<e1Detector id="b22[1]_0" lane="b22[1]_0" pos="14" freq="1800" file="e1_output.xml" />
<e1Detector id="b22[1]_1" lane="b22[1]_1" pos="14" freq="1800" file="e1_output.xml" />
<e1Detector id="b1[0]_0" lane="b1[0]_0" pos="329" freq="1800" file="e1_output.xml" />
<e1Detector id="b1[0]_1" lane="b1[0]_1" pos="329" freq="1800" file="e1_output.xml" />
<e1Detector id="b1[0]_2" lane="b1[0]_2" pos="329" freq="1800" file="e1_output.xml" />
<e1Detector id="b2[1][1][1]b_0" lane="b2[1][1][1]b_0" pos="55" freq="1800" file="e1_output.xml" />
<e1Detector id="b2[1][1][1]b_1" lane="b2[1][1][1]b_1" pos="55" freq="1800" file="e1_output.xml" />
<e1Detector id="b2[1][1][1]b_2" lane="b2[1][1][1]b_2" pos="55" freq="1800" file="e1_output.xml" />

<e1Detector id="b56[1][0]_0" lane="b56[1][0]_0" pos="30" freq="1800" file="e1_output.xml" />
<e1Detector id="b56[1][0]_1" lane="b56[1][0]_1" pos="30" freq="1800" file="e1_output.xml" />

<e1Detector id="b3[1]_0" lane="b3[1]_0" pos="40" freq="1800" file="e1_output.xml" />
<e1Detector id="b3[1]_1" lane="b3[1]_1" pos="40" freq="1800" file="e1_output.xml" />


</additional>