<?xml version="1.0" encoding="UTF-8"?>

<!-- generated on 2024-03-06 13:24:21.471470 by randomTrips.py v1_19_0+0000-baa66a0f364
<configuration>
    <net-file value="nets/bo/joined_buslanes.net.xml"/>
    <route-file value="nets/bo/generated_route.rou.xml"/>
    <validate value="True"/>
    <end value="1000.0"/>
</configuration>
-->

<!-- generated on 2024-03-06 13:24:21 by Eclipse SUMO duarouter Version 1.19.0
<configuration xmlns:xsi="http://www.w3.org/2001/XMLSchema-instance" xsi:noNamespaceSchemaLocation="http://sumo.dlr.de/xsd/duarouterConfiguration.xsd">

    <input>
        <net-file value="nets/bo/joined_buslanes.net.xml"/>
        <route-files value="trips.trips.xml"/>
    </input>

    <output>
        <output-file value="nets/bo/generated_route.rou.xml"/>
        <alternatives-output value="NUL"/>
    </output>

    <time>
        <begin value="0"/>
        <end value="1000.0"/>
    </time>

    <report>
        <no-warnings value="true"/>
        <ignore-errors value="true"/>
        <no-step-log value="true"/>
    </report>

</configuration>
-->

<routes xmlns:xsi="http://www.w3.org/2001/XMLSchema-instance" xsi:noNamespaceSchemaLocation="http://sumo.dlr.de/xsd/routes_file.xsd">
<vType id="type1" length="5" accel="5" decel="10" />
<vType id="type2" color="1,0,0" length="7" accel="5" decel="10" vClass="emergency" />
    <vehicle id="0" depart="26.0" type="type1">
        <route edges="b12 b56[0] b39[0] b39[1][0] b39[1][1][0] b46 a181 a18 a69 a161 a194 a91 a186 a109[0] a109[1][0]+20003"/>
    </vehicle>
    <vehicle id="1" depart="45.0" type="type1">
        <route edges="a204b[0] a204[1][0] a125 b12 b56[0] b39[0] b39[1][0] b39[1][1][0] b39[1][1][1] b45 a67 a80 a127 a77[1][0] a77ab a77bc a77cd a53cd a53[0] a78[1][1] a189[0] a189[1][0]+20000 a189[1][1] a188 a87[0] a20001+87[1][0] a87[1][1] am90 a89[0] a20002+89[1][0]"/>
    </vehicle>
    <vehicle id="2" depart="83.0" type="type1">
        <route edges="b26.-170 b17[0] b17[1]"/>
    </vehicle>
    <vehicle id="3" depart="91.0" type="type1">
        <route edges="b50[0] b97 b39[1][0] b39[1][1][0] b39[1][1][1] b45 a67 a80 a127 a77[1][0] a77ab a77bc a77cd a53cd a82 a51 a219 a218 a38 a33 a10 a13"/>
    </vehicle>
    <vehicle id="4" depart="110.0" type="type1">
        <route edges="a43[1] a201 a201c a204a[0] a124 b12 b56[0] b39[0] b39[1][0] b39[1][1][0] b46 a181 a18 a69 a161 a194 a91 a186 a109[0] a109[1][0]+20003 a109[1][1]"/>
    </vehicle>
    <vehicle id="5" depart="113.0" type="type1">
        <route edges="a20 a219 a218 a36 a40 a41 a160 a61 a58[0] a58[1] a66"/>
    </vehicle>
    <vehicle id="6" depart="120.0" type="type2">
        <route edges="a109[1][0]+20003 a109[1][1] a120 a65 a57[0] a57[1] a62 a159 a42 a153 a87[0] a20001+87[1][0] a87[1][1] am90 a171 a161 a122 a1b"/>
    </vehicle>
    <vehicle id="7" depart="135.0" type="type1">
        <route edges="b13[1] b4[0] b28 b28a b16[1] b18 b20+19a ba1[1] b1[1] a67 a80 a127 a77[1][0] a77[1][1]"/>
    </vehicle>
    <vehicle id="8" depart="142.0" type="type1">
        <route edges="a20 a219 a218 a38 a15 a14 a9"/>
    </vehicle>
    <vehicle id="9" depart="149.0" type="type1">
        <route edges="b37 b26 b26.-170 b18 b20+19a ba1[1] b1[1] a67 a80 a127 a77[1][0] a77ab a77bc a77cd a53cd a82 a51 a219 a218 a38 a33 a10"/>
    </vehicle>
    <vehicle id="10" depart="161.0" type="type1">
        <route edges="b36 b39[1][1][1] b45 b2[0] b34[1][2] b26 b26.-170 b18 b20+19b"/>
    </vehicle>
    <vehicle id="11" depart="169.0" type="type1">
        <route edges="a24 a22 a59 a53cd a53[0] a78[1][1] a189[0] a189[1][0]+20000 a189[1][1] a188 a87[0] a20001+87[1][0] a87[1][1] am90 a89[0] a20002+89[1][0] a89[1][1] a91 a186"/>
    </vehicle>
    <vehicle id="12" depart="171.0" type="type1">
        <route edges="b63[1] b4[0] b28 b28a b16[1] b18 b20+19a ba1[1] b1[1] a72[0] a72[1] a69 a161 a122 a3"/>
    </vehicle>
    <vehicle id="13" depart="172.0" type="type1">
        <route edges="a131 a119 a116 a46 a134 a134b"/>
    </vehicle>
    <vehicle id="14" depart="175.0" type="type2">
        <route edges="b39[1][1][0] b39[1][1][1] b45 a67 a80 a127 a77[1][0] a77ab a77bc a77cd a53cd a53[0] a78[1][1] a189[0] a189[1][0]+20000 a189[1][1] a188 a87[0] a20001+87[1][0] a87[1][1] a97"/>
    </vehicle>
    <vehicle id="15" depart="184.0" type="type1">
        <route edges="b36 b39[1][1][1] b45 b2[0] b34[1][2] b26 b26.-170"/>
    </vehicle>
    <vehicle id="16" depart="192.0" type="type1">
        <route edges="a75 a51 a19 a22 a59 a53cd a53[0] a53[1][0] a79 a68 a11 b38[0] b38[0]a b38[1][0] b38[1][1] b38[1][1]a b56[1][0] b56[1][1] b70"/>
    </vehicle>
    <vehicle id="17" depart="197.0" type="type1">
        <route edges="a36 a40 a93 a48 a42 a39 a35 a38 a15 a24 a22 a59 a53cd a53[0] a78[1][1]"/>
    </vehicle>
    <vehicle id="18" depart="204.0" type="type1">
        <route edges="b38[1][1] b39[1][0] b39[1][1][0] b39[1][1][1] b45 a67 a80 a127 a77[1][0] a77ab a77bc a77cd a53cd a53[0] a78[1][1] a189[0] a189[1][0]+20000 a189[1][1] a188 a87[0] a20001+87[1][0] a87[1][1] am90"/>
    </vehicle>
    <vehicle id="20" depart="204.0" type="type1">
        <route edges="b22[0] b22[1] ba1[1] b1[1] a72[0] a72[1] a69 a161 a194 a91 a186 a109[0] a109[1][0]+20003 a109[1][1] a116"/>
    </vehicle>
    <vehicle id="21" depart="209.0" type="type1">
        <route edges="a20001+87[1][0] a87[1][1] a97 a42 a39 a35 a38 a50 a219"/>
    </vehicle>
    <vehicle id="22" depart="210.0" type="type1">
        <route edges="a125 b12 b56[0] b39[0] b39[1][0] b39[1][1][0] b46 a181 a18 a69 a161 a194 a91 a186 a109[0] a109[1][0]+20003 a109[1][1] a116 a46 a201 a201c"/>
    </vehicle>
    <vehicle id="23" depart="211.0" type="type1">
        <route edges="a14 a9 a211"/>
    </vehicle>
    <vehicle id="24" depart="211.0" type="type1">
        <route edges="b11[1][1] b101 b34[0] b34[1][0] b36 b39[1][1][1] b45 a67 a80 a127 a77[1][0] a77ab a77bc a77cd a53cd a82 a51 a219 a218 a36"/>
    </vehicle>
    <vehicle id="25" depart="229.0" type="type1">
        <route edges="a34 a113 a118 a65 a57[0] a57[1] a62 a159 a42 a39 a35 a38 a15 a24 a20"/>
    </vehicle>
    <vehicle id="26" depart="231.0" type="type1">
        <route edges="a204[1][0] a125 b12 b56[0] b56[1][0]"/>
    </vehicle>
    <vehicle id="28" depart="238.0" type="type1">
        <route edges="a189[0] a189[1][0]+20000 a189[1][1] a191 a17 a71 b38[0] b38[0]a b37 b26 b26.-170"/>
    </vehicle>
    <vehicle id="29" depart="242.0" type="type1">
        <route edges="a186 a109[0] a109[1][0]+20003 a109[1][1] a120 a65 a57[0] a57[1] a62 a159 a42 a39"/>
    </vehicle>
    <vehicle id="30" depart="242.0" type="type1">
        <route edges="b97 b38[1][1]a b56[1][0] b56[1][1] b5[1][0]+66 b11[1][1]"/>
    </vehicle>
    <vehicle id="31" depart="257.0" type="type2">
        <route edges="a8 a13 a104 a24 a22 a59 a53cd a53[0] a53[1][0] a79 a68 a11 b38[0] b38[0]a b37 b26 b26.-170 b18"/>
    </vehicle>
    <vehicle id="32" depart="262.0" type="type1">
        <route edges="b39[1][0] b39[1][1][0] b37 b26 b26.-170 b17[0] b30"/>
    </vehicle>
    <vehicle id="33" depart="265.0" type="type1">
        <route edges="a20001+87[1][0] a87[1][1] am90 a89[0] a20002+89[1][0] a89[1][1] a91 a186 a109[0] a109[1][0]+20003 a109[1][1]"/>
    </vehicle>
    <vehicle id="34" depart="269.0" type="type1">
        <route edges="a22 a59 a53cd a53[0] a53[1][0] a53[1][1][0] a77[1][0] a77ab a77bc a21a a21b a103 a14 a9 a211 a45 a206"/>
    </vehicle>
    <vehicle id="35" depart="275.0" type="type1">
        <route edges="a1b a1 a204a[0] a124 b12 b56[0] b56[1][0] b56[1][1]"/>
    </vehicle>
    <vehicle id="37" depart="276.0" type="type1">
        <route edges="b14 b18 b20+19a ba1[1] b1[1] a67 a80 a127 a77[1][0] a77ab a77bc a77cd a53cd a53[0] a78[1][1] a189[0] a189[1][0]+20000 a189[1][1] a188 a87[0] a20001+87[1][0] a87[1][1] a97 a42"/>
    </vehicle>
    <vehicle id="40" depart="277.0" type="type1">
        <route edges="a80 a127 a77[1][0] a77ab a77bc a77cd a53cd a53[0] a78[1][1] a189[0] a189[1][0]+20000 a189[1][1] a191 a69 a161 a122 a1b a1 a204a[0]"/>
    </vehicle>
    <vehicle id="41" depart="278.0" type="type1">
        <route edges="a89[1][1] a91 a186 a109[0] a109[1][0]+20003 a109[1][1] a116 a46 a201 a201c a204a[0] a124 b12 b56[0] b56[1][0] b56[1][1] b5[1][0]+66 b5[1][1][1] b8 b4[1][1][1]"/>
    </vehicle>
    <vehicle id="42" depart="285.0" type="type1">
        <route edges="a40 a153 a87[0] a20001+87[1][0]"/>
    </vehicle>
    <vehicle id="43" depart="291.0" type="type1">
        <route edges="ba1[1] b1[1] a67"/>
    </vehicle>
    <vehicle id="44" depart="294.0" type="type1">
        <route edges="a131 a117"/>
    </vehicle>
    <vehicle id="46" depart="298.0" type="type1">
        <route edges="b34[1][0] b36 b46 a181 a18 a69 a161 a194 a91 a186 a109[0] a109[1][0]+20003 a109[1][1] a116 a46"/>
    </vehicle>
    <vehicle id="47" depart="300.0" type="type1">
        <route edges="a120 a65 a57[0] a57[1] a62 a159 a42 a153 a87[0] a20001+87[1][0] a87[1][1] am90 a171 a161 a122 a3 a2 a4"/>
    </vehicle>
    <vehicle id="48" depart="300.0" type="type1">
        <route edges="ba1[1] b1[1] a72[0]"/>
    </vehicle>
    <vehicle id="49" depart="301.0" type="type1">
        <route edges="b7 b3[1]"/>
    </vehicle>
    <vehicle id="51" depart="302.0" type="type1">
        <route edges="b18 b20+19a ba1[1] b1[1] a67 a80 a127 a77[1][0] a77ab a77bc a77cd a53cd a53[0] a53[1][0] a79 a74"/>
    </vehicle>
    <vehicle id="52" depart="303.0" type="type1">
        <route edges="a204[1][0] a125 b12 b56[0] b56[1][0] b56[1][1] b5[1][0]+66 b11[1][1]"/>
    </vehicle>
    <vehicle id="53" depart="307.0" type="type1">
        <route edges="a153 a87[0] a20001+87[1][0] a87[1][1] am90 a171 a161 a122 a3 a2 a4 a4c"/>
    </vehicle>
    <vehicle id="55" depart="308.0" type="type1">
        <route edges="b49[0] b49[1] b55 b56[0] b39[0] b39[1][0] b39[1][1][0] b46 a181 a18 a69 a161 a122 a1b a1 a204a[0] a204b[0]"/>
    </vehicle>
    <vehicle id="56" depart="313.0" type="type1">
        <route edges="a66 a119 a116 a46 a113 a118 a65 a57[0] a57[1] a62 a159 a42 a39 a35 a38 a50 a19"/>
    </vehicle>
    <vehicle id="58" depart="314.0" type="type1">
        <route edges="a218 a38 a15 a24 a22 a59 a53cd a53[0] a53[1][0] a79 a68 a11 b38[0] b38[0]a b38[1][0] b38[1][1] b38[1][1]a b56[1][0] b56[1][1] b5[1][0]+66 b11[1][1]"/>
    </vehicle>
    <vehicle id="59" depart="318.0" type="type1">
        <route edges="am1 a21b a20 a219 a218 a38 a15 a24 a22 a59 a53cd a53[0] a53[1][0] a79 a68 a11 b38[0] b38[0]a b46 a181"/>
    </vehicle>
    <vehicle id="60" depart="321.0" type="type1">
        <route edges="b2[1][0] b24 b23 b15 b14 b18 b20+19a ba1[1] b1[1] a67 a80 a127 a77[1][0] a77ab a77bc a77cd a53cd a53[0] a53[1][0] a79 a74"/>
    </vehicle>
    <vehicle id="61" depart="324.0" type="type1">
        <route edges="b30 b31 b5[1][1][1] b16[0] b16[1] b18 b20+19a ba1[1] b1[1] a72[0]"/>
    </vehicle>
    <vehicle id="62" depart="324.0" type="type2">
        <route edges="a1 a204a[0] a124 b12 b56[0] b39[0] b39[1][0] b39[1][1][0] b39[1][1][1] b45 a67 a26"/>
    </vehicle>
    <vehicle id="63" depart="332.0" type="type1">
        <route edges="a109[0] a109[1][0]+20003 a109[1][1] a116 a46 a201 a201c a204a[0] a124 b12 b56[0] b39[0] b39[1][0] b96 b49[1] b55"/>
    </vehicle>
    <vehicle id="64" depart="332.0" type="type1">
        <route edges="b49[1] b55 b56[0] b56[1][0] b34[0] b34[1][0] b36 b38[1][0] b38[1][1]"/>
    </vehicle>
    <vehicle id="65" depart="339.0" type="type1">
        <route edges="a21a a21b a20 a219 a218 a36 a40 a41 a160 a61 a58[0] a58[1] a66 a119"/>
    </vehicle>
    <vehicle id="66" depart="346.0" type="type1">
        <route edges="b49[1] b55 b56[0] b56[1][0] b56[1][1] b5[1][0]+66"/>
    </vehicle>
    <vehicle id="67" depart="352.0" type="type1">
        <route edges="a13 a104 a16 a37 a36 a40 a41 a160 a61 a58[0] a58[1] a200 a60"/>
    </vehicle>
    <vehicle id="68" depart="353.0" type="type1">
        <route edges="a122 a1b a1 a204a[0] a124 b12 b56[0] b39[0] b39[1][0] b39[1][1][0] b39[1][1][1] b45 b2[0] b2[1][0] b2[1][1][0]"/>
    </vehicle>
    <vehicle id="70" depart="361.0" type="type1">
        <route edges="a58[1] a197 a109[0] a109[1][0]+20003 a109[1][1] a120 a65 a57[0] a57[1] a62 a159 a42 a39 a35 a38 a15 a24 a22 a59 a53cd a53[0] a78[1][1]"/>
    </vehicle>
    <vehicle id="71" depart="365.0" type="type1">
        <route edges="a204[1][0] a125 b12 b56[0] b39[0] b39[1][0] b39[1][1][0] b39[1][1][1] b45"/>
    </vehicle>
    <vehicle id="72" depart="365.0" type="type1">
        <route edges="a44 a36 a40 a41 a160 a61 a58[0] a58[1] a200"/>
    </vehicle>
    <vehicle id="73" depart="366.0" type="type1">
        <route edges="a75 a51 a19 a22 a59 a53cd a53[0] a53[1][0] a79 a68 a11 b38[0] b38[0]a b37 b26 b26.-170"/>
    </vehicle>
    <vehicle id="75" depart="366.0" type="type1">
        <route edges="b98 b34[1][0] b26 b26.-170 b15 b13[1]"/>
    </vehicle>
    <vehicle id="76" depart="369.0" type="type1">
        <route edges="a48 a42 a39 a35 a38 a15 a24 a22 a59 a53cd a53[0] a78[1][1] a189[0] a189[1][0]+20000 a189[1][1] a191 a69"/>
    </vehicle>
    <vehicle id="77" depart="370.0" type="type1">
        <route edges="a16 a37 a36 a40 a153 a87[0] a20001+87[1][0] a87[1][1] am90 a89[0] a20002+89[1][0]"/>
    </vehicle>
    <vehicle id="78" depart="371.0" type="type1">
        <route edges="a24 a20 a219 a218 a38 a15 a14 a9"/>
    </vehicle>
    <vehicle id="79" depart="373.0" type="type1">
        <route edges="a20002+89[1][0] a89[1][1] a91 a173 a62 a159 a42 a153 a87[0] a20001+87[1][0]"/>
    </vehicle>
    <vehicle id="80" depart="374.0" type="type1">
        <route edges="a124 b12 b56[0] b56[1][0] b56[1][1] b5[1][0]+66 b11[1][1] b101"/>
    </vehicle>
    <vehicle id="81" depart="379.0" type="type1">
        <route edges="a20001+87[1][0] a87[1][1] am90 a171 a161 a122 a1b a1 a204a[0] a124 b12 b50[0]"/>
    </vehicle>
    <vehicle id="83" depart="384.0" type="type1">
        <route edges="a201 a201c a204a[0] a124 b12 b56[0] b56[1][0] b56[1][1] b5[1][0]+66 b5[1][1][1] b16[0] b16[1]"/>
    </vehicle>
    <vehicle id="84" depart="386.0" type="type1">
        <route edges="a2 a202 a34 a113 a118 a65 a57[0] a57[1] a62 a159 a42 a39 a35 a38 a15 a24 a22 a59 a53cd a53[0] a78[1][1] a189[0] a189[1][0]+20000 a189[1][1] a191 a17"/>
    </vehicle>
    <vehicle id="85" depart="386.0" type="type2">
        <route edges="b5[1][0]+66 b11[1][1] b101 b34[0] b34[1][0] b36 b39[1][1][1] b45 a67 a80 a127 a77[1][0] a77ab a77bc a77cd a53cd a53[0] a78[1][1] a189[0] a189[1][0]+20000 a189[1][1] a188 a87[0]"/>
    </vehicle>
    <vehicle id="86" depart="386.0" type="type1">
        <route edges="a58[0] a58[1] a66 a119 a116 a46 a201 a201c a204a[0] a124 b12 b56[0] b56[1][0] b56[1][1] b5[1][0]+66 b33"/>
    </vehicle>
    <vehicle id="87" depart="388.0" type="type1">
        <route edges="b36 b46 a181 a18 a69 a161 a194"/>
    </vehicle>
    <vehicle id="89" depart="390.0" type="type1">
        <route edges="a44 a36 a40 a153 a87[0] a20001+87[1][0] a87[1][1] am90 a89[0] a20002+89[1][0] a89[1][1] a91 a186 a109[0] a109[1][0]+20003 a109[1][1] a120 a65 a57[0] a57[1]"/>
    </vehicle>
    <vehicle id="90" depart="392.0" type="type1">
        <route edges="b26 b26.-170 b17[0]"/>
    </vehicle>
    <vehicle id="91" depart="400.0" type="type1">
        <route edges="b96 b49[1] b55 b56[0] b39[0] b39[1][0] b39[1][1][0] b46 a181 a18 a69 a161 a122 a3 a2 a202 a34 a134 a134b"/>
    </vehicle>
    <vehicle id="94" depart="400.0" type="type2">
        <route edges="a191 a69 a161 a122 a1b a1 a204a[0] a204b[0] a54"/>
    </vehicle>
    <vehicle id="95" depart="402.0" type="type1">
        <route edges="a43[1] a201 a201c a204a[0] a124 b12 b56[0] b39[0] b39[1][0] b39[1][1][0] b39[1][1][1] b45 a67 a80 a127 a77[1][0] a77ab a77bc a21a a21b a103 a14 a9 a211"/>
    </vehicle>
    <vehicle id="96" depart="403.0" type="type1">
        <route edges="a203[0] b12 b53 b53a"/>
    </vehicle>
    <vehicle id="97" depart="405.0" type="type1">
        <route edges="a50 a19 a22 a59 a53cd a53[0] a53[1][0] a79 a68 a11 b38[0] b38[0]a b38[1][0] b38[1][1] b38[1][1]a b56[1][0] b56[1][1] b5[1][0]+66 b5[1][1][1] b8 b3[1]"/>
    </vehicle>
    <vehicle id="98" depart="406.0" type="type1">
        <route edges="a79 a74 a72[1] a69 a161 a194 a91 a186 a109[0] a109[1][0]+20003 a109[1][1] a120 a117"/>
    </vehicle>
    <vehicle id="99" depart="406.0" type="type1">
        <route edges="ba1[1] b1[1] b38[0] b38[0]a b38[1][0] b38[1][1] b38[1][1]a"/>
    </vehicle>
    <vehicle id="101" depart="409.0" type="type1">
        <route edges="b39[1][1][0] b39[1][1][1] b45 a67 a80 a127 a77[1][0] a77ab a77bc a77cd a53cd a53[0] a78[1][1] a189[0]"/>
    </vehicle>
    <vehicle id="102" depart="409.0" type="type1">
        <route edges="a61 a58[0] a58[1] a200"/>
    </vehicle>
    <vehicle id="103" depart="410.0" type="type1">
        <route edges="a40 a41 a160 a61 a58[0] a58[1] a66 a119"/>
    </vehicle>
    <vehicle id="104" depart="411.0" type="type1">
        <route edges="a36 a40 a93 a48 a42 a39 a35 a38 a15 a24 a22 a59 a53cd a53[0] a53[1][0] a79 a68 a11 b38[0] b38[0]a b38[1][0] b96"/>
    </vehicle>
    <vehicle id="105" depart="412.0" type="type1">
        <route edges="a204[1][0] a125 b12 b56[0] b56[1][0] b56[1][1] b5[1][0]+66 b33"/>
    </vehicle>
    <vehicle id="106" depart="417.0" type="type1">
        <route edges="a56a a56b a77bc a77cd a53cd a82 a51 a219 a218 a36 a40 a93 a48"/>
    </vehicle>
    <vehicle id="107" depart="418.0" type="type1">
        <route edges="b63[1] b4[0] b28 b28a b16[1] b18 b20+19a ba1[1]"/>
    </vehicle>
    <vehicle id="109" depart="428.0" type="type1">
        <route edges="a18 a17 a71 a67 a80 a127 a77[1][0] a77ab a77bc a21a a21b"/>
    </vehicle>
    <vehicle id="111" depart="428.0" type="type1">
        <route edges="a78[0] a56a a56b a77bc a77cd a53cd a53[0] a53[1][0] a79 a68 a11 b38[0] b38[0]a b37 b26 b26.-170 b17[0] b29[0] b29[1]"/>
    </vehicle>
    <vehicle id="112" depart="430.0" type="type1">
        <route edges="a119 a116 a46 a113 a118 a65 a57[0] a57[1] a62 a159 a42 a153 a87[0] a20001+87[1][0] a87[1][1] am90 a89[0] a20002+89[1][0] a89[1][1]"/>
    </vehicle>
    <vehicle id="113" depart="432.0" type="type1">
        <route edges="a67 a80 a127 a77[1][0] a77ab a77bc a77cd a53cd a53[0] a53[1][0] a79 a68 a11 b38[0] b38[0]a b38[1][0] b38[1][1] b39[1][0] b39[1][1][0]"/>
    </vehicle>
    <vehicle id="114" depart="432.0" type="type1">
        <route edges="a181 a18 a17 a71 b38[0] b38[0]a b38[1][0] b38[1][1] b38[1][1]a b56[1][0] b56[1][1] b64"/>
    </vehicle>
    <vehicle id="115" depart="433.0" type="type1">
        <route edges="a127 a77[1][0] a77ab a77bc a77cd a53cd a53[0] a78[1][1] a189[0] a189[1][0]+20000 a189[1][1] a191"/>
    </vehicle>
    <vehicle id="116" depart="434.0" type="type1">
        <route edges="a91 a186 a109[0] a109[1][0]+20003 a109[1][1] a116 a46 a201 a201c a204a[0] a124 b12 b56[0] b39[0] b39[1][0] b39[1][1][0] b37 b26 b26.-170 b17[0]"/>
    </vehicle>
    <vehicle id="117" depart="436.0" type="type1">
        <route edges="a201 a201c a204a[0] a124 b12 b56[0] b39[0] b39[1][0] b39[1][1][0] b39[1][1][1] b45 a67 a80 a127 a77[1][0] a77ab a77bc a21a a21b a103 a16"/>
    </vehicle>
    <vehicle id="119" depart="443.0" type="type1">
        <route edges="a91 a173 a62 a159 a42 a153 a87[0] a20001+87[1][0] a87[1][1] am90"/>
    </vehicle>
    <vehicle id="120" depart="453.0" type="type1">
        <route edges="a43[1] a201 a201c a204a[0] a124 b12 b56[0] b39[0] b39[1][0] b39[1][1][0] b39[1][1][1] b45 a67 a80 a127 a77[1][0] a77ab a77bc a77cd a53cd a53[0] a78[1][1] a189[0] a189[1][0]+20000 a189[1][1] a188 a87[0] a20001+87[1][0] a87[1][1] am90 a89[0] a20002+89[1][0] a89[1][1]"/>
    </vehicle>
    <vehicle id="121" depart="455.0" type="type1">
        <route edges="a72[0] a72[1] a69 a161 a122 a1b a1 a204a[0] a124 b12 b56[0] b56[1][0]"/>
    </vehicle>
    <vehicle id="122" depart="457.0" type="type1">
        <route edges="a197 a109[0] a109[1][0]+20003 a109[1][1] a116 a46 a201 a201c a204a[0] a124 b12 b56[0] b39[0] b39[1][0] b39[1][1][0] b39[1][1][1] b45 b2[0] b2[1][0] b24"/>
    </vehicle>
    <vehicle id="123" depart="458.0" type="type1">
        <route edges="a201 a201c a204a[0] a124 b12 b56[0] b39[0] b39[1][0] b39[1][1][0] b39[1][1][1] b45 a67 a80 a127 a77[1][0] a77ab a77bc a77cd a53cd a53[0] a78[1][1] a189[0] a189[1][0]+20000 a189[1][1] a188 a87[0] a20001+87[1][0] a87[1][1] a97 a42"/>
    </vehicle>
    <vehicle id="124" depart="459.0" type="type1">
        <route edges="b17[0] b17[1] b11[0] b11[1][1] b101 b34[0] b34[1][0] b36 b39[1][1][1] b45 a67 a80 a127 a77[1][0] a77ab a77bc a21a a21b"/>
    </vehicle>
    <vehicle id="125" depart="460.0" type="type1">
        <route edges="a22 a59 a53cd a53[0] a53[1][0] a79 a68 a11 b2[0]"/>
    </vehicle>
    <vehicle id="127" depart="461.0" type="type1">
        <route edges="ba1[1]"/>
    </vehicle>
    <vehicle id="128" depart="462.0" type="type1">
        <route edges="a124 b12 b56[0] b39[0] b39[1][0] b39[1][1][0] b46 a181 a18 a69 a161 a194 a91 a186 a109[0] a109[1][0]+20003 a109[1][1] a120 a65 a200"/>
    </vehicle>
    <vehicle id="129" depart="462.0" type="type1">
        <route edges="a204[1][0] a125 b12 b56[0]"/>
    </vehicle>
    <vehicle id="130" depart="463.0" type="type1">
        <route edges="b49[1] b55 b56[0] b39[0] b39[1][0] b39[1][1][0] b46 b49[0]"/>
    </vehicle>
    <vehicle id="131" depart="471.0" type="type1">
        <route edges="a34 a113 a118 a65 a57[0] a57[1] a62 a159 a42 a153 a87[0] a20001+87[1][0] a87[1][1] am90 a89[0] a20002+89[1][0] a89[1][1] a91 a186"/>
    </vehicle>
    <vehicle id="132" depart="471.0" type="type1">
        <route edges="b38[1][1]a b56[1][0] b56[1][1] b5[1][0]+66 b5[1][1][1] b16[0] b16[1] b18 b20+19a b21"/>
    </vehicle>
    <vehicle id="134" depart="472.0" type="type2">
        <route edges="b14 b18 b20+19a ba1[1] b1[1] a67 a80 a127 a77[1][0] a77ab a77bc a77cd a53cd a82 a51 a219 a218 a38 a33 a10"/>
    </vehicle>
    <vehicle id="135" depart="472.0" type="type1">
        <route edges="b38[0]a b46 a181 a18 a17 a71 a67 a80 a127 a77[1][0] a77ab a77bc a21a a21b"/>
    </vehicle>
    <vehicle id="136" depart="473.0" type="type1">
        <route edges="b16[0] b16[1] b18 b20+19a ba1[1] b1[1] b38[0] b38[0]a b38[1][0] b38[1][1] b38[1][1]a b56[1][0]"/>
    </vehicle>
    <vehicle id="137" depart="480.0" type="type1">
        <route edges="a165 a31 a113 a118 a65 a57[0] a57[1] a62 a159"/>
    </vehicle>
    <vehicle id="138" depart="481.0" type="type1">
        <route edges="a15 a24 a22 a59 a53cd a53[0] a78[1][1]"/>
    </vehicle>
    <vehicle id="139" depart="485.0" type="type1">
        <route edges="a204b[0] a204[1][0] a125 b12 b56[0] b39[0] b39[1][0] b39[1][1][0] b39[1][1][1] b45 a67 a80 a127 a77[1][0] a77ab a77bc a77cd a53cd a53[0] a78[1][1] a189[0] a189[1][0]+20000 a189[1][1] a188 a87[0] a20001+87[1][0] a87[1][1] a97"/>
    </vehicle>
    <vehicle id="140" depart="487.0" type="type1">
        <route edges="b23 b15 b14 b18 b20+19a ba1[1] b1[1] a72[0] a72[1] a69 a161 a122 a3 a2"/>
    </vehicle>
    <vehicle id="141" depart="490.0" type="type1">
        <route edges="b11[1][1] b101 b34[0] b34[1][0] b36 b46 a181 a18 a69 a161 a122 a1b a1 a204a[0] a204b[0]"/>
    </vehicle>
    <vehicle id="142" depart="495.0" type="type1">
        <route edges="a62 a159 a42 a153 a87[0] a20001+87[1][0] a87[1][1] am90 a171 a161 a122 a1b a1 a204a[0] a124 b12 b50[0]"/>
    </vehicle>
    <vehicle id="143" depart="500.0" type="type1">
        <route edges="b39[1][1][0] b46 a181 a18 a69 a161 a122 a3 a2 a202 a34 a134"/>
    </vehicle>
    <vehicle id="144" depart="501.0" type="type1">
        <route edges="a44 a36 a40 a41 a160 a61 a58[0] a58[1] a66 a117 a209"/>
    </vehicle>
    <vehicle id="145" depart="502.0" type="type1">
        <route edges="a1 a204a[0] a124 b12 b56[0] b39[0] b39[1][0] b39[1][1][0] b39[1][1][1] b45 b2[0] b2[1][0] b2[1][1][0] b2[1][1][1] b2[1][1][1]b"/>
    </vehicle>
    <vehicle id="146" depart="503.0" type="type1">
        <route edges="b11[1][1] b101 b34[0] b34[1][0] b36 b46 a181 a18 a69 a161 a122 a1b a1 a204a[0]"/>
    </vehicle>
    <vehicle id="147" depart="505.0" type="type1">
        <route edges="b28 b28a b16[1] b18 b20+19a ba1[1] b1[1] a67 a80 a127 a77[1][0] a77ab a77bc a77cd a53cd a53[0] a78[1][1]"/>
    </vehicle>
    <vehicle id="148" depart="506.0" type="type1">
        <route edges="a45 a44 a38 a50 a19 a103"/>
    </vehicle>
    <vehicle id="149" depart="512.0" type="type1">
        <route edges="a125 b12 b56[0] b39[0] b39[1][0] b96 b49[1]"/>
    </vehicle>
    <vehicle id="150" depart="516.0" type="type1">
        <route edges="b51 b56[0] b39[0] b39[1][0] b39[1][1][0] b39[1][1][1] b45 a67 a80 a127 a77[1][0] a77[1][1]"/>
    </vehicle>
    <vehicle id="151" depart="517.0" type="type1">
        <route edges="b38[1][1]a b56[1][0] b34[0] b34[1][0] b36 b39[1][1][1] b45 a67 a80 a127 a77[1][0] a77ab a77bc a77cd a53cd a53[0] a78[1][1] a189[0] a189[1][0]+20000 a189[1][1] a188 a87[0] a20001+87[1][0] a87[1][1] am90 a89[0] a20002+89[1][0] a89[1][1]"/>
    </vehicle>
    <vehicle id="152" depart="521.0" type="type1">
        <route edges="a173 a62 a159 a42 a153 a87[0] a20001+87[1][0] a87[1][1] am90 a171 a161"/>
    </vehicle>
    <vehicle id="153" depart="521.0" type="type1">
        <route edges="a21a a21b a20 a219 a218 a38 a15 a24 a22 a59 a53cd a53[0] a53[1][0] a79 a68 a11 b38[0] b38[0]a b38[1][0] b38[1][1] b38[1][1]a b56[1][0] b56[1][1] b5[1][0]+66 b5[1][1][1] b8 b4[1][1][1]"/>
    </vehicle>
    <vehicle id="154" depart="523.0" type="type1">
        <route edges="b34[1][1] b2[1][0] b24 b23 b17[0] b17[1] b8 b3[1]"/>
    </vehicle>
    <vehicle id="155" depart="524.0" type="type1">
        <route edges="b50[1]a a181 a18 a17 a71 a67 a80 a127 a77[1][0] a77ab a77bc a21a a21b a20"/>
    </vehicle>
    <vehicle id="156" depart="527.0" type="type1">
        <route edges="a203[0] b12 b56[0] b39[0] b39[1][0] b39[1][1][0] b39[1][1][1] b45 a67 a80 a127 a77[1][0] a77ab a77bc a21a a21b a103 a14"/>
    </vehicle>
    <vehicle id="157" depart="531.0" type="type1">
        <route edges="b31 b11[1][1] b101 b34[0] b34[1][0] b36 b46 b49[0] b49[1]"/>
    </vehicle>
    <vehicle id="158" depart="535.0" type="type1">
        <route edges="a41 a160 a61 a58[0] a58[1] a66 a119 a116 a46 a201 a201c a204a[0] a124 b12 b56[0] b56[1][0] b56[1][1] b5[1][0]+66 b5[1][1][1] b8 b10"/>
    </vehicle>
    <vehicle id="159" depart="535.0" type="type1">
        <route edges="a18 a17 a71 b38[0] b38[0]a b38[1][0] b96 b49[1] b55 b56[0]"/>
    </vehicle>
    <vehicle id="160" depart="536.0" type="type2">
        <route edges="b45 b2[0] b2[1][0] b24 b23 b17[0] b17[1] b11[0] b11[1][1] b70"/>
    </vehicle>
    <vehicle id="161" depart="536.0" type="type1">
        <route edges="b37 b26 b26.-170 b18 b20+19a ba1[1] b1[1] b38[0] b38[0]a b46 b49[0]"/>
    </vehicle>
    <vehicle id="162" depart="537.0" type="type2">
        <route edges="a109[1][0]+20003 a109[1][1] a116 a46 a201 a201c a204a[0] a124 b12 b56[0] b39[0] b39[1][0] b39[1][1][0] b37 b26 b26.-170 b15 b13[1] b4[0] b28"/>
    </vehicle>
    <vehicle id="163" depart="537.0" type="type2">
        <route edges="a224[0] a224[1] b49[0] b49[1] b55 b56[0]"/>
    </vehicle>
    <vehicle id="164" depart="539.0" type="type1">
        <route edges="b34[1][2] b26 b26.-170 b17[0] b17[1] b8 b3[1] b3[1]b"/>
    </vehicle>
    <vehicle id="165" depart="540.0" type="type1">
        <route edges="b37 b26 b26.-170 b18 b20+19a ba1[1] b1[1] a72[0] a72[1] a69 a161 a122 a1b a1 a204a[0] a204b[0]"/>
    </vehicle>
    <vehicle id="166" depart="543.0" type="type2">
        <route edges="b34[0] b34[1][0] b36 b39[1][1][1] b45 a67 a80 a127 a77[1][0] a77ab a77bc a77cd a53cd a82 a51 a219 a218 a36 a40 a153"/>
    </vehicle>
    <vehicle id="167" depart="544.0" type="type1">
        <route edges="b46 a181 a18 a17 a71 b2[0] b34[1][2] b36 b39[1][1][1]"/>
    </vehicle>
    <vehicle id="170" depart="546.0" type="type1">
        <route edges="b34[1][1] b2[1][0] b24 b23 b15 b14 b18 b20+19a ba1[1] b1[1] a72[0] a72[1] a69 a161 a194 a91 a186 a109[0] a109[1][0]+20003 a109[1][1] a116 a46 a201"/>
    </vehicle>
    <vehicle id="171" depart="550.0" type="type1">
        <route edges="a109[1][0]+20003 a109[1][1] a120 a65 a197"/>
    </vehicle>
    <vehicle id="172" depart="551.0" type="type1">
        <route edges="a220b a220 a19 a22 a59 a53cd a53[0] a53[1][0] a79 a68 a11 b38[0] b38[0]a b38[1][0] b38[1][1] b38[1][1]a b56[1][0] b56[1][1] b5[1][0]+66 b5[1][1][1] b8 b3[1] b3[1]b"/>
    </vehicle>
    <vehicle id="173" depart="551.0" type="type1">
        <route edges="b67 b31 b11[1][1] b101 b34[0] b34[1][0] b36 b39[1][1][1] b45 a67 a80 a127 a77[1][0] a77ab a77bc a21a a21b a103 a14 a9 a211"/>
    </vehicle>
    <vehicle id="176" depart="551.0" type="type1">
        <route edges="b5[1][1][1] b16[0] b16[1] b18 b20+19a ba1[1] b1[1] a72[0] a72[1] a69 a161 a194 a91 a173 a62 a159"/>
    </vehicle>
    <vehicle id="178" depart="552.0" type="type1">
        <route edges="b67 b31 b11[1][1] b101 b34[0] b34[1][0] b36 b46 a181 a18 a69 a161 a122 a1b a1 a204a[0] a204b[0]"/>
    </vehicle>
    <vehicle id="179" depart="555.0" type="type2">
        <route edges="a153 a87[0] a20001+87[1][0] a87[1][1] am90 a171 a161 a122 a3 a2 a4 a4c"/>
    </vehicle>
    <vehicle id="181" depart="559.0" type="type1">
        <route edges="am1 a21b a20 a219 a218 a38 a15 a24 a22 a59 a53cd a53[0] a78[1][1] a189[0] a189[1][0]+20000 a189[1][1] a191 a17 a71 a67"/>
    </vehicle>
    <vehicle id="182" depart="560.0" type="type1">
        <route edges="a38 a15 a24 a22 a59 a53cd a53[0] a78[1][1] a189[0] a189[1][0]+20000 a189[1][1] a188 a87[0] a20001+87[1][0] a87[1][1]"/>
    </vehicle>
    <vehicle id="184" depart="567.0" type="type1">
        <route edges="a1 a204a[0] a124 b12 b56[0] b39[0] b39[1][0] b96 b49[1] b55"/>
    </vehicle>
    <vehicle id="186" depart="568.0" type="type1">
        <route edges="b28a b16[1]"/>
    </vehicle>