<?xml version="1.0" encoding="UTF-8"?>

<!-- generated on 2024-03-20 11:38:09 by Eclipse SUMO duarouter Version 1.12.0
<configuration xmlns:xsi="http://www.w3.org/2001/XMLSchema-instance" xsi:noNamespaceSchemaLocation="http://sumo.dlr.de/xsd/duarouterConfiguration.xsd">

    <input>
        <net-file value="nets/3x3/network.net.xml"/>
        <route-files value="trips.trips.xml"/>
    </input>

    <output>
        <output-file value="nets/bo/generated_route.rou.xml"/>
        <alternatives-output value="nets/bo/generated_route.rou.alt.xml"/>
    </output>

    <time>
        <begin value="0"/>
        <end value="1000"/>
    </time>

    <report>
        <no-warnings value="true"/>
        <ignore-errors value="true"/>
        <no-step-log value="true"/>
    </report>

</configuration>
-->

<routes xmlns:xsi="http://www.w3.org/2001/XMLSchema-instance" xsi:noNamespaceSchemaLocation="http://sumo.dlr.de/xsd/routes_file.xsd">
<vType id="type1" length="5" accel="5" decel="10" />
<vType id="type2" color="1,0,0" length="7" accel="5" decel="10" vClass="emergency" />
    <vehicle id="0" depart="37.0" type="type1">
        <route edges="intersectionW___intersectionCenter intersectionCenter___intersectionN intersectionN___intersectionNE intersectionNE___intersectionE intersectionE___intersectionCenter intersectionCenter___intersectionW"/>
    </vehicle>
    <vehicle id="1" depart="38.0" type="type1">
        <route edges="intersectionCenter___intersectionW intersectionW___intersectionSW intersectionSW___intersectionS intersectionS___intersectionSE intersectionSE___intersectionE"/>
    </vehicle>
    <vehicle id="2" depart="71.0" type="type2">
        <route edges="intersectionNE___intersectionN intersectionN___intersectionNW intersectionNW___intersectionW intersectionW___intersectionCenter"/>
    </vehicle>
    <vehicle id="3" depart="78.0" type="type1">
        <route edges="northMiddle___intersectionN intersectionN___intersectionCenter intersectionCenter___intersectionS intersectionS___southMiddle"/>
    </vehicle>
    <vehicle id="4" depart="89.0" type="type1">
        <route edges="intersectionN___intersectionCenter intersectionCenter___intersectionS intersectionS___intersectionSE"/>
    </vehicle>
    <vehicle id="5" depart="114.0" type="type1">
        <route edges="intersectionSW___intersectionW intersectionW___intersectionCenter intersectionCenter___intersectionS intersectionS___intersectionSE"/>
    </vehicle>
    <vehicle id="6" depart="117.0" type="type1">
        <route edges="intersectionNE___intersectionN intersectionN___northMiddle"/>
    </vehicle>
    <vehicle id="7" depart="118.0" type="type1">
        <route edges="intersectionN___intersectionNE intersectionNE___intersectionE intersectionE___intersectionCenter intersectionCenter___intersectionW intersectionW___intersectionNW intersectionNW___northLeft"/>
    </vehicle>
    <vehicle id="8" depart="133.0" type="type1">
        <route edges="intersectionN___intersectionCenter intersectionCenter___intersectionW intersectionW___intersectionNW intersectionNW___northLeft"/>
    </vehicle>
    <vehicle id="9" depart="134.0" type="type1">
        <route edges="intersectionCenter___intersectionS intersectionS___intersectionSE intersectionSE___intersectionE intersectionE___intersectionCenter"/>
    </vehicle>
    <vehicle id="10" depart="136.0" type="type1">
        <route edges="intersectionNE___intersectionN intersectionN___intersectionNW intersectionNW___intersectionW intersectionW___intersectionSW intersectionSW___intersectionS"/>
    </vehicle>
    <vehicle id="11" depart="150.0" type="type1">
        <route edges="intersectionS___intersectionSW intersectionSW___westBottom"/>
    </vehicle>
    <vehicle id="12" depart="153.0" type="type1">
        <route edges="intersectionW___intersectionSW intersectionSW___intersectionS intersectionS___intersectionSE"/>
    </vehicle>
    <vehicle id="13" depart="162.0" type="type2">
        <route edges="intersectionCenter___intersectionE intersectionE___intersectionNE intersectionNE___intersectionN intersectionN___intersectionNW intersectionNW___intersectionW"/>
    </vehicle>
    <vehicle id="14" depart="164.0" type="type1">
        <route edges="intersectionS___intersectionSE intersectionSE___intersectionE intersectionE___intersectionCenter intersectionCenter___intersectionS"/>
    </vehicle>
    <vehicle id="15" depart="165.0" type="type1">
        <route edges="southMiddle___intersectionS intersectionS___intersectionSW intersectionSW___southLeft"/>
    </vehicle>
    <vehicle id="16" depart="178.0" type="type1">
        <route edges="intersectionNW___intersectionW intersectionW___intersectionCenter intersectionCenter___intersectionN"/>
    </vehicle>
    <vehicle id="17" depart="178.0" type="type2">
        <route edges="intersectionCenter___intersectionE intersectionE___intersectionSE intersectionSE___intersectionS intersectionS___intersectionCenter intersectionCenter___intersectionN"/>
    </vehicle>
    <vehicle id="18" depart="182.0" type="type1">
        <route edges="intersectionE___intersectionNE intersectionNE___eastTop"/>
    </vehicle>
    <vehicle id="19" depart="182.0" type="type1">
        <route edges="intersectionCenter___intersectionS intersectionS___intersectionSW intersectionSW___intersectionW intersectionW___intersectionNW intersectionNW___intersectionN intersectionN___intersectionNE"/>
    </vehicle>
    <vehicle id="20" depart="183.0" type="type1">
        <route edges="northMiddle___intersectionN intersectionN___intersectionCenter intersectionCenter___intersectionS intersectionS___intersectionSW intersectionSW___intersectionW"/>
    </vehicle>
    <vehicle id="21" depart="192.0" type="type1">
        <route edges="intersectionS___intersectionSE intersectionSE___intersectionE intersectionE___intersectionCenter intersectionCenter___intersectionW intersectionW___intersectionNW"/>
    </vehicle>
    <vehicle id="22" depart="192.0" type="type1">
        <route edges="intersectionSE___intersectionS intersectionS___intersectionCenter intersectionCenter___intersectionN"/>
    </vehicle>
    <vehicle id="23" depart="194.0" type="type2">
        <route edges="intersectionCenter___intersectionE intersectionE___eastMiddle"/>
    </vehicle>
    <vehicle id="24" depart="202.0" type="type1">
        <route edges="intersectionN___intersectionCenter intersectionCenter___intersectionS intersectionS___intersectionSE intersectionSE___southRight"/>
    </vehicle>
    <vehicle id="25" depart="207.0" type="type1">
        <route edges="westBottom___intersectionSW intersectionSW___intersectionS intersectionS___intersectionSE intersectionSE___intersectionE intersectionE___intersectionCenter"/>
    </vehicle>
    <vehicle id="26" depart="213.0" type="type1">
        <route edges="intersectionSE___intersectionE intersectionE___intersectionCenter intersectionCenter___intersectionS intersectionS___intersectionSE intersectionSE___southRight"/>
    </vehicle>
    <vehicle id="27" depart="213.0" type="type1">
        <route edges="intersectionN___intersectionNW intersectionNW___intersectionW intersectionW___intersectionCenter intersectionCenter___intersectionN intersectionN___intersectionNE intersectionNE___intersectionE"/>
    </vehicle>
    <vehicle id="28" depart="214.0" type="type2">
        <route edges="intersectionCenter___intersectionW intersectionW___intersectionSW intersectionSW___intersectionS intersectionS___intersectionSE"/>
    </vehicle>
    <vehicle id="29" depart="214.0" type="type1">
        <route edges="southMiddle___intersectionS intersectionS___intersectionCenter intersectionCenter___intersectionE intersectionE___intersectionSE"/>
    </vehicle>
    <vehicle id="30" depart="216.0" type="type1">
        <route edges="intersectionE___intersectionSE intersectionSE___intersectionS intersectionS___intersectionCenter intersectionCenter___intersectionN intersectionN___intersectionNE"/>
    </vehicle>
    <vehicle id="31" depart="223.0" type="type1">
        <route edges="intersectionN___intersectionNE intersectionNE___intersectionE intersectionE___intersectionSE intersectionSE___southRight"/>
    </vehicle>
    <vehicle id="32" depart="223.0" type="type1">
        <route edges="eastTop___intersectionNE intersectionNE___intersectionN intersectionN___intersectionCenter intersectionCenter___intersectionW intersectionW___intersectionNW intersectionNW___intersectionN"/>
    </vehicle>
    <vehicle id="33" depart="231.0" type="type1">
        <route edges="northMiddle___intersectionN intersectionN___intersectionCenter intersectionCenter___intersectionS intersectionS___intersectionSE intersectionSE___eastBottom"/>
    </vehicle>
    <vehicle id="34" depart="235.0" type="type1">
        <route edges="eastTop___intersectionNE intersectionNE___intersectionE intersectionE___intersectionSE intersectionSE___intersectionS intersectionS___intersectionCenter"/>
    </vehicle>
    <vehicle id="35" depart="244.0" type="type1">
        <route edges="intersectionW___intersectionNW intersectionNW___intersectionN intersectionN___intersectionNE intersectionNE___intersectionE intersectionE___eastMiddle"/>
    </vehicle>
    <vehicle id="36" depart="248.0" type="type1">
        <route edges="intersectionW___intersectionCenter intersectionCenter___intersectionN intersectionN___intersectionNE"/>
    </vehicle>
    <vehicle id="37" depart="250.0" type="type2">
        <route edges="intersectionE___intersectionCenter intersectionCenter___intersectionS intersectionS___southMiddle"/>
    </vehicle>
    <vehicle id="38" depart="250.0" type="type1">
        <route edges="northRight___intersectionNE intersectionNE___intersectionE intersectionE___intersectionCenter intersectionCenter___intersectionW intersectionW___intersectionSW"/>
    </vehicle>
    <vehicle id="39" depart="262.0" type="type1">
        <route edges="intersectionNW___intersectionW intersectionW___intersectionCenter intersectionCenter___intersectionS intersectionS___intersectionSW intersectionSW___intersectionW intersectionW___intersectionNW"/>
    </vehicle>
    <vehicle id="40" depart="266.0" type="type1">
        <route edges="intersectionS___intersectionSE intersectionSE___intersectionE intersectionE___intersectionNE intersectionNE___intersectionN intersectionN___intersectionCenter"/>
    </vehicle>
    <vehicle id="41" depart="267.0" type="type1">
        <route edges="eastTop___intersectionNE intersectionNE___intersectionE intersectionE___eastMiddle"/>
    </vehicle>
    <vehicle id="42" depart="271.0" type="type2">
        <route edges="intersectionSE___intersectionS intersectionS___intersectionSW intersectionSW___intersectionW intersectionW___intersectionCenter intersectionCenter___intersectionS"/>
    </vehicle>
    <vehicle id="43" depart="272.0" type="type1">
        <route edges="northRight___intersectionNE intersectionNE___intersectionN intersectionN___intersectionCenter intersectionCenter___intersectionS intersectionS___intersectionSE intersectionSE___intersectionE"/>
    </vehicle>
    <vehicle id="44" depart="275.0" type="type1">
        <route edges="intersectionE___intersectionCenter intersectionCenter___intersectionS intersectionS___intersectionSE intersectionSE___intersectionE"/>
    </vehicle>
    <vehicle id="45" depart="279.0" type="type1">
        <route edges="intersectionSW___intersectionS intersectionS___intersectionCenter intersectionCenter___intersectionW intersectionW___intersectionNW intersectionNW___intersectionN"/>
    </vehicle>
    <vehicle id="46" depart="281.0" type="type1">
        <route edges="intersectionCenter___intersectionN intersectionN___intersectionNE intersectionNE___intersectionE intersectionE___intersectionCenter intersectionCenter___intersectionW intersectionW___intersectionNW"/>
    </vehicle>
    <vehicle id="47" depart="281.0" type="type1">
        <route edges="westBottom___intersectionSW intersectionSW___intersectionW intersectionW___intersectionCenter intersectionCenter___intersectionS intersectionS___intersectionSW intersectionSW___westBottom"/>
    </vehicle>
    <vehicle id="48" depart="282.0" type="type1">
        <route edges="southRight___intersectionSE intersectionSE___intersectionE intersectionE___intersectionCenter intersectionCenter___intersectionS"/>
    </vehicle>
    <vehicle id="49" depart="282.0" type="type2">
        <route edges="intersectionW___intersectionCenter intersectionCenter___intersectionN intersectionN___intersectionNW intersectionNW___intersectionW intersectionW___intersectionSW"/>
    </vehicle>
    <vehicle id="50" depart="283.0" type="type1">
        <route edges="intersectionW___intersectionNW intersectionNW___intersectionN intersectionN___intersectionCenter intersectionCenter___intersectionS intersectionS___intersectionSW intersectionSW___westBottom"/>
    </vehicle>
    <vehicle id="51" depart="284.0" type="type1">
        <route edges="northLeft___intersectionNW intersectionNW___intersectionW intersectionW___westMiddle"/>
    </vehicle>
    <vehicle id="52" depart="284.0" type="type2">
        <route edges="intersectionSE___intersectionE intersectionE___intersectionCenter intersectionCenter___intersectionS intersectionS___intersectionSE intersectionSE___eastBottom"/>
    </vehicle>
    <vehicle id="53" depart="291.0" type="type1">
        <route edges="intersectionSW___intersectionS intersectionS___intersectionCenter intersectionCenter___intersectionE intersectionE___intersectionSE intersectionSE___intersectionS intersectionS___intersectionSW intersectionSW___intersectionW"/>
    </vehicle>
    <vehicle id="54" depart="294.0" type="type1">
        <route edges="intersectionCenter___intersectionN intersectionN___intersectionNW intersectionNW___intersectionW"/>
    </vehicle>
    <vehicle id="55" depart="295.0" type="type1">
        <route edges="intersectionE___intersectionSE intersectionSE___intersectionS intersectionS___intersectionCenter"/>
    </vehicle>
    <vehicle id="56" depart="295.0" type="type1">
        <route edges="intersectionE___intersectionNE intersectionNE___intersectionN intersectionN___intersectionCenter intersectionCenter___intersectionS intersectionS___intersectionSE"/>
    </vehicle>
    <vehicle id="57" depart="299.0" type="type1">
        <route edges="northMiddle___intersectionN intersectionN___intersectionCenter intersectionCenter___intersectionW"/>
    </vehicle>
    <vehicle id="58" depart="299.0" type="type2">
        <route edges="intersectionNE___intersectionE intersectionE___intersectionSE intersectionSE___intersectionS intersectionS___intersectionSW intersectionSW___intersectionW"/>
    </vehicle>
    <vehicle id="59" depart="300.0" type="type1">
        <route edges="eastTop___intersectionNE intersectionNE___intersectionN intersectionN___intersectionNW intersectionNW___intersectionW intersectionW___intersectionSW intersectionSW___intersectionS"/>
    </vehicle>
    <vehicle id="60" depart="301.0" type="type1">
        <route edges="intersectionE___intersectionSE intersectionSE___intersectionS intersectionS___intersectionCenter intersectionCenter___intersectionW"/>
    </vehicle>
    <vehicle id="61" depart="302.0" type="type1">
        <route edges="southRight___intersectionSE intersectionSE___intersectionS intersectionS___intersectionCenter intersectionCenter___intersectionE intersectionE___intersectionSE"/>
    </vehicle>
    <vehicle id="62" depart="304.0" type="type1">
        <route edges="westMiddle___intersectionW intersectionW___intersectionSW intersectionSW___intersectionS intersectionS___intersectionSE intersectionSE___intersectionE"/>
    </vehicle>
    <vehicle id="63" depart="315.0" type="type1">
        <route edges="intersectionSE___intersectionE intersectionE___intersectionNE intersectionNE___intersectionN intersectionN___northMiddle"/>
    </vehicle>
    <vehicle id="64" depart="316.0" type="type1">
        <route edges="intersectionSW___intersectionW intersectionW___intersectionCenter intersectionCenter___intersectionE"/>
    </vehicle>
    <vehicle id="65" depart="318.0" type="type2">
        <route edges="intersectionSW___intersectionS intersectionS___intersectionSE intersectionSE___intersectionE intersectionE___intersectionNE intersectionNE___intersectionN"/>
    </vehicle>
    <vehicle id="66" depart="320.0" type="type1">
        <route edges="intersectionSW___intersectionS intersectionS___intersectionCenter intersectionCenter___intersectionW intersectionW___intersectionSW"/>
    </vehicle>
    <vehicle id="67" depart="322.0" type="type1">
        <route edges="intersectionW___intersectionSW intersectionSW___intersectionS intersectionS___intersectionCenter intersectionCenter___intersectionN intersectionN___intersectionNE"/>
    </vehicle>
    <vehicle id="68" depart="322.0" type="type1">
        <route edges="intersectionS___intersectionSW intersectionSW___intersectionW intersectionW___intersectionCenter intersectionCenter___intersectionN intersectionN___intersectionNW"/>
    </vehicle>
    <vehicle id="69" depart="327.0" type="type1">
        <route edges="westTop___intersectionNW intersectionNW___intersectionN intersectionN___intersectionNE intersectionNE___intersectionE intersectionE___intersectionCenter"/>
    </vehicle>
    <vehicle id="70" depart="330.0" type="type1">
        <route edges="intersectionW___intersectionNW intersectionNW___intersectionN intersectionN___intersectionNE intersectionNE___intersectionE intersectionE___intersectionCenter"/>
    </vehicle>
    <vehicle id="71" depart="331.0" type="type1">
        <route edges="southMiddle___intersectionS intersectionS___intersectionSE intersectionSE___southRight"/>
    </vehicle>
    <vehicle id="72" depart="334.0" type="type1">
        <route edges="intersectionS___intersectionCenter intersectionCenter___intersectionW intersectionW___westMiddle"/>
    </vehicle>
    <vehicle id="73" depart="337.0" type="type1">
        <route edges="intersectionN___intersectionNW intersectionNW___intersectionW"/>
    </vehicle>
    <vehicle id="74" depart="337.0" type="type1">
        <route edges="intersectionNE___intersectionN intersectionN___intersectionNW intersectionNW___northLeft"/>
    </vehicle>
    <vehicle id="75" depart="338.0" type="type1">
        <route edges="westTop___intersectionNW intersectionNW___intersectionW intersectionW___intersectionSW intersectionSW___southLeft"/>
    </vehicle>
    <vehicle id="76" depart="339.0" type="type1">
        <route edges="intersectionE___intersectionCenter intersectionCenter___intersectionN intersectionN___intersectionNW intersectionNW___intersectionW"/>
    </vehicle>
    <vehicle id="77" depart="342.0" type="type1">
        <route edges="northMiddle___intersectionN intersectionN___intersectionNE"/>
    </vehicle>
    <vehicle id="78" depart="348.0" type="type1">
        <route edges="intersectionNE___intersectionE intersectionE___intersectionCenter"/>
    </vehicle>
    <vehicle id="79" depart="353.0" type="type2">
        <route edges="intersectionE___intersectionSE intersectionSE___intersectionS intersectionS___intersectionSW intersectionSW___intersectionW intersectionW___intersectionNW intersectionNW___intersectionN"/>
    </vehicle>
    <vehicle id="80" depart="358.0" type="type1">
        <route edges="westBottom___intersectionSW intersectionSW___intersectionS"/>
    </vehicle>
    <vehicle id="81" depart="359.0" type="type1">
        <route edges="southRight___intersectionSE intersectionSE___intersectionS intersectionS___southMiddle"/>
    </vehicle>
    <vehicle id="82" depart="362.0" type="type1">
        <route edges="intersectionNW___intersectionW intersectionW___intersectionCenter intersectionCenter___intersectionE intersectionE___intersectionSE intersectionSE___southRight"/>
    </vehicle>
    <vehicle id="83" depart="362.0" type="type1">
        <route edges="intersectionW___intersectionNW intersectionNW___intersectionN intersectionN___intersectionCenter intersectionCenter___intersectionE intersectionE___intersectionNE"/>
    </vehicle>
    <vehicle id="84" depart="362.0" type="type1">
        <route edges="northLeft___intersectionNW intersectionNW___intersectionN intersectionN___intersectionNE intersectionNE___intersectionE"/>
    </vehicle>
    <vehicle id="85" depart="363.0" type="type1">
        <route edges="eastBottom___intersectionSE intersectionSE___intersectionE intersectionE___intersectionCenter intersectionCenter___intersectionW"/>
    </vehicle>
    <vehicle id="86" depart="363.0" type="type1">
        <route edges="intersectionCenter___intersectionW intersectionW___intersectionNW intersectionNW___intersectionN intersectionN___intersectionCenter intersectionCenter___intersectionS intersectionS___intersectionSW intersectionSW___intersectionW intersectionW___intersectionCenter"/>
    </vehicle>
    <vehicle id="87" depart="364.0" type="type1">
        <route edges="intersectionNE___intersectionE intersectionE___intersectionSE intersectionSE___intersectionS"/>
    </vehicle>
    <vehicle id="88" depart="364.0" type="type1">
        <route edges="intersectionCenter___intersectionS intersectionS___intersectionSE intersectionSE___southRight"/>
    </vehicle>
    <vehicle id="89" depart="367.0" type="type1">
        <route edges="intersectionCenter___intersectionE intersectionE___intersectionSE intersectionSE___intersectionS intersectionS___intersectionSW intersectionSW___intersectionW intersectionW___intersectionNW"/>
    </vehicle>
    <vehicle id="90" depart="370.0" type="type1">
        <route edges="intersectionNW___intersectionN intersectionN___intersectionCenter intersectionCenter___intersectionW intersectionW___intersectionSW"/>
    </vehicle>
    <vehicle id="91" depart="374.0" type="type1">
        <route edges="intersectionE___intersectionCenter intersectionCenter___intersectionN intersectionN___intersectionNE intersectionNE___eastTop"/>
    </vehicle>
    <vehicle id="92" depart="375.0" type="type1">
        <route edges="intersectionNE___intersectionE intersectionE___intersectionCenter"/>
    </vehicle>
    <vehicle id="93" depart="376.0" type="type2">
        <route edges="intersectionSE___intersectionS intersectionS___intersectionCenter intersectionCenter___intersectionW intersectionW___westMiddle"/>
    </vehicle>
    <vehicle id="94" depart="377.0" type="type1">
        <route edges="intersectionN___intersectionNE intersectionNE___intersectionE intersectionE___intersectionCenter"/>
    </vehicle>
    <vehicle id="95" depart="377.0" type="type1">
        <route edges="intersectionNE___intersectionE intersectionE___intersectionCenter intersectionCenter___intersectionN intersectionN___intersectionNE"/>
    </vehicle>
    <vehicle id="96" depart="378.0" type="type1">
        <route edges="northMiddle___intersectionN intersectionN___intersectionCenter intersectionCenter___intersectionW"/>
    </vehicle>
    <vehicle id="97" depart="379.0" type="type1">
        <route edges="intersectionE___intersectionNE intersectionNE___intersectionN intersectionN___intersectionCenter"/>
    </vehicle>
    <vehicle id="98" depart="382.0" type="type1">
        <route edges="intersectionCenter___intersectionE intersectionE___eastMiddle"/>
    </vehicle>
    <vehicle id="99" depart="386.0" type="type1">
        <route edges="intersectionSW___intersectionS intersectionS___intersectionCenter intersectionCenter___intersectionW intersectionW___intersectionSW intersectionSW___southLeft"/>
    </vehicle>
    <vehicle id="100" depart="393.0" type="type1">
        <route edges="intersectionS___intersectionSE intersectionSE___intersectionE intersectionE___intersectionCenter intersectionCenter___intersectionW intersectionW___intersectionSW intersectionSW___intersectionS intersectionS___intersectionCenter"/>
    </vehicle>
    <vehicle id="101" depart="394.0" type="type1">
        <route edges="intersectionS___intersectionSW intersectionSW___intersectionW intersectionW___intersectionCenter intersectionCenter___intersectionE intersectionE___intersectionNE intersectionNE___intersectionN"/>
    </vehicle>
    <vehicle id="102" depart="397.0" type="type1">
        <route edges="northRight___intersectionNE intersectionNE___intersectionE intersectionE___intersectionCenter intersectionCenter___intersectionW intersectionW___intersectionNW"/>
    </vehicle>
    <vehicle id="103" depart="400.0" type="type1">
        <route edges="eastMiddle___intersectionE intersectionE___intersectionCenter intersectionCenter___intersectionW intersectionW___intersectionNW"/>
    </vehicle>
    <vehicle id="104" depart="400.0" type="type1">
        <route edges="eastMiddle___intersectionE intersectionE___intersectionCenter intersectionCenter___intersectionW"/>
    </vehicle>
    <vehicle id="105" depart="403.0" type="type1">
        <route edges="intersectionW___intersectionCenter intersectionCenter___intersectionN intersectionN___intersectionNE intersectionNE___intersectionE intersectionE___intersectionCenter intersectionCenter___intersectionW"/>
    </vehicle>
    <vehicle id="106" depart="410.0" type="type1">
        <route edges="intersectionNE___intersectionE intersectionE___intersectionCenter intersectionCenter___intersectionW intersectionW___intersectionNW"/>
    </vehicle>
    <vehicle id="107" depart="410.0" type="type1">
        <route edges="northRight___intersectionNE intersectionNE___intersectionE intersectionE___intersectionCenter intersectionCenter___intersectionW intersectionW___intersectionNW intersectionNW___intersectionN"/>
    </vehicle>
    <vehicle id="108" depart="410.0" type="type2">
        <route edges="southLeft___intersectionSW intersectionSW___intersectionS intersectionS___intersectionCenter intersectionCenter___intersectionW"/>
    </vehicle>
    <vehicle id="109" depart="414.0" type="type2">
        <route edges="intersectionE___intersectionCenter intersectionCenter___intersectionS intersectionS___intersectionSW intersectionSW___intersectionW intersectionW___intersectionCenter"/>
    </vehicle>
    <vehicle id="110" depart="417.0" type="type1">
        <route edges="westBottom___intersectionSW intersectionSW___intersectionS intersectionS___intersectionCenter intersectionCenter___intersectionE"/>
    </vehicle>
    <vehicle id="111" depart="417.0" type="type1">
        <route edges="northMiddle___intersectionN intersectionN___intersectionCenter intersectionCenter___intersectionS intersectionS___intersectionSE"/>
    </vehicle>
    <vehicle id="112" depart="420.0" type="type1">
        <route edges="intersectionE___intersectionSE intersectionSE___intersectionS intersectionS___intersectionSW intersectionSW___intersectionW intersectionW___intersectionNW intersectionNW___intersectionN intersectionN___intersectionCenter"/>
    </vehicle>
    <vehicle id="113" depart="420.0" type="type1">
        <route edges="westTop___intersectionNW intersectionNW___intersectionN intersectionN___intersectionCenter intersectionCenter___intersectionS"/>
    </vehicle>
    <vehicle id="114" depart="421.0" type="type2">
        <route edges="intersectionCenter___intersectionN intersectionN___intersectionNW intersectionNW___intersectionW intersectionW___intersectionSW intersectionSW___southLeft"/>
    </vehicle>
    <vehicle id="115" depart="422.0" type="type1">
        <route edges="eastTop___intersectionNE intersectionNE___intersectionN intersectionN___intersectionNW"/>
    </vehicle>
    <vehicle id="116" depart="422.0" type="type2">
        <route edges="intersectionNW___intersectionW intersectionW___intersectionCenter intersectionCenter___intersectionS"/>
    </vehicle>
    <vehicle id="117" depart="424.0" type="type1">
        <route edges="intersectionW___intersectionNW intersectionNW___intersectionN intersectionN___intersectionCenter intersectionCenter___intersectionE intersectionE___intersectionNE"/>
    </vehicle>
    <vehicle id="118" depart="427.0" type="type1">
        <route edges="eastTop___intersectionNE intersectionNE___intersectionN intersectionN___intersectionCenter intersectionCenter___intersectionS"/>
    </vehicle>
    <vehicle id="119" depart="432.0" type="type1">
        <route edges="intersectionW___intersectionSW intersectionSW___intersectionS intersectionS___intersectionCenter intersectionCenter___intersectionN intersectionN___intersectionNW intersectionNW___intersectionW intersectionW___intersectionCenter"/>
    </vehicle>
    <vehicle id="120" depart="433.0" type="type2">
        <route edges="intersectionS___intersectionCenter intersectionCenter___intersectionE"/>
    </vehicle>
    <vehicle id="121" depart="434.0" type="type1">
        <route edges="intersectionS___intersectionSW intersectionSW___intersectionW intersectionW___intersectionNW intersectionNW___westTop"/>
    </vehicle>
    <vehicle id="122" depart="435.0" type="type1">
        <route edges="intersectionCenter___intersectionW intersectionW___intersectionNW intersectionNW___intersectionN"/>
    </vehicle>
    <vehicle id="123" depart="440.0" type="type1">
        <route edges="intersectionSW___intersectionS intersectionS___intersectionCenter intersectionCenter___intersectionW intersectionW___westMiddle"/>
    </vehicle>
    <vehicle id="124" depart="440.0" type="type1">
        <route edges="intersectionCenter___intersectionN intersectionN___intersectionNE intersectionNE___intersectionE intersectionE___intersectionSE intersectionSE___intersectionS intersectionS___intersectionSW intersectionSW___intersectionW"/>
    </vehicle>
    <vehicle id="125" depart="442.0" type="type1">
        <route edges="intersectionS___intersectionSW intersectionSW___intersectionW intersectionW___intersectionCenter intersectionCenter___intersectionS"/>
    </vehicle>
    <vehicle id="126" depart="443.0" type="type1">
        <route edges="westTop___intersectionNW intersectionNW___intersectionN intersectionN___northMiddle"/>
    </vehicle>
    <vehicle id="127" depart="443.0" type="type1">