<?xml version="1.0" encoding="UTF-8"?>

<!-- generated on 2024-03-11 23:58:15.841877 by randomTrips.py v1_19_0+0000-baa66a0f364
<configuration>
    <net-file value="nets/bo/network.net.xml"/>
    <route-file value="nets/bo/generated_route.rou.xml"/>
    <validate value="True"/>
    <end value="1000.0"/>
</configuration>
-->

<!-- generated on 2024-03-11 23:58:15 by Eclipse SUMO duarouter Version 1.19.0
<configuration xmlns:xsi="http://www.w3.org/2001/XMLSchema-instance" xsi:noNamespaceSchemaLocation="http://sumo.dlr.de/xsd/duarouterConfiguration.xsd">

    <input>
        <net-file value="nets/bo/network.net.xml"/>
        <route-files value="trips.trips.xml"/>
    </input>

    <output>
        <output-file value="nets/bo/generated_route.rou.xml"/>
        <alternatives-output value="NUL"/>
    </output>

    <time>
        <begin value="0"/>
        <end value="1000.0"/>
    </time>

    <report>
        <no-warnings value="true"/>
        <ignore-errors value="true"/>
        <no-step-log value="true"/>
    </report>

</configuration>
-->

<routes xmlns:xsi="http://www.w3.org/2001/XMLSchema-instance" xsi:noNamespaceSchemaLocation="http://sumo.dlr.de/xsd/routes_file.xsd">
<vType id="type1" length="5" accel="5" decel="10" />
<vType id="type2" color="1,0,0" length="7" accel="5" decel="10" vClass="emergency" />
    <vehicle id="0" depart="13.0" type="type1">
        <route edges="b12 b56[0] b39[0] b39[1][0] b39[1][1][0] b46 a181 a18 a69 a161 a194 a91 a186 a109[0] a109[1][0]+20003"/>
    </vehicle>
    <vehicle id="1" depart="35.0" type="type2">
        <route edges="a204b[0] a204[1][0] a125 b12 b56[0] b39[0] b39[1][0] b39[1][1][0] b39[1][1][1] b45 a67 a80 a127 a77[1][0] a77ab a77bc a77cd a53cd a53[0] a78[1][1] a189[0] a189[1][0]+20000 a189[1][1] a188 a87[0] a20001+87[1][0] a87[1][1] am90 a89[0] a20002+89[1][0]"/>
    </vehicle>
    <vehicle id="2" depart="43.0" type="type1">
        <route edges="b26.-170 b17[0] b17[1]"/>
    </vehicle>
    <vehicle id="3" depart="62.0" type="type1">
        <route edges="b50[0] b97 b39[1][0] b39[1][1][0] b39[1][1][1] b45 a67 a80 a127 a77[1][0] a77ab a77bc a77cd a53cd a82 a51 a219 a218 a38 a33 a10 a13"/>
    </vehicle>
    <vehicle id="4" depart="83.0" type="type1">
        <route edges="a43[1] a201 a201c a204a[0] a124 b12 b56[0] b39[0] b39[1][0] b39[1][1][0] b46 a181 a18 a69 a161 a194 a91 a186 a109[0] a109[1][0]+20003 a109[1][1]"/>
    </vehicle>
    <vehicle id="5" depart="84.0" type="type1">
        <route edges="a20 a219 a218 a36 a40 a41 a160 a61 a58[0] a58[1] a66"/>
    </vehicle>
    <vehicle id="6" depart="86.0" type="type1">
        <route edges="a109[1][0]+20003 a109[1][1] a120 a65 a57[0] a57[1] a62 a159 a42 a153 a87[0] a20001+87[1][0] a87[1][1] am90 a171 a161 a122 a1b"/>
    </vehicle>
    <vehicle id="7" depart="93.0" type="type1">
        <route edges="b13[1] b4[0] b28 b28a b16[1] b18 b20+19a ba1[1] b1[1] a67 a80 a127 a77[1][0] a77[1][1]"/>
    </vehicle>
    <vehicle id="8" depart="97.0" type="type1">
        <route edges="a20 a219 a218 a38 a15 a14 a9"/>
    </vehicle>
    <vehicle id="9" depart="105.0" type="type1">
        <route edges="b37 b26 b26.-170 b18 b20+19a ba1[1] b1[1] a67 a80 a127 a77[1][0] a77ab a77bc a77cd a53cd a82 a51 a219 a218 a38 a33 a10"/>
    </vehicle>
    <vehicle id="10" depart="107.0" type="type1">
        <route edges="b36 b39[1][1][1] b45 b2[0] b34[1][2] b26 b26.-170 b18 b20+19b"/>
    </vehicle>
    <vehicle id="11" depart="112.0" type="type1">
        <route edges="a24 a22 a59 a53cd a53[0] a78[1][1] a189[0] a189[1][0]+20000 a189[1][1] a188 a87[0] a20001+87[1][0] a87[1][1] am90 a89[0] a20002+89[1][0] a89[1][1] a91 a186"/>
    </vehicle>
    <vehicle id="12" depart="113.0" type="type1">
        <route edges="b63[1] b4[0] b28 b28a b16[1] b18 b20+19a ba1[1] b1[1] a72[0] a72[1] a69 a161 a122 a3"/>
    </vehicle>
    <vehicle id="13" depart="117.0" type="type1">
        <route edges="a131 a119 a116 a46 a134 a134b"/>
    </vehicle>
    <vehicle id="14" depart="127.0" type="type1">
        <route edges="b39[1][1][0] b39[1][1][1] b45 a67 a80 a127 a77[1][0] a77ab a77bc a77cd a53cd a53[0] a78[1][1] a189[0] a189[1][0]+20000 a189[1][1] a188 a87[0] a20001+87[1][0] a87[1][1] a97"/>
    </vehicle>
    <vehicle id="15" depart="132.0" type="type1">
        <route edges="b36 b39[1][1][1] b45 b2[0] b34[1][2] b26 b26.-170"/>
    </vehicle>
    <vehicle id="16" depart="133.0" type="type1">
        <route edges="a75 a51 a19 a22 a59 a53cd a53[0] a53[1][0] a79 a68 a11 b38[0] b38[0]a b38[1][0] b38[1][1] b38[1][1]a b56[1][0] b56[1][1] b70"/>
    </vehicle>
    <vehicle id="17" depart="138.0" type="type1">
        <route edges="a36 a40 a93 a48 a42 a39 a35 a38 a15 a24 a22 a59 a53cd a53[0] a78[1][1]"/>
    </vehicle>
    <vehicle id="18" depart="141.0" type="type1">
        <route edges="b38[1][1] b39[1][0] b39[1][1][0] b39[1][1][1] b45 a67 a80 a127 a77[1][0] a77ab a77bc a77cd a53cd a53[0] a78[1][1] a189[0] a189[1][0]+20000 a189[1][1] a188 a87[0] a20001+87[1][0] a87[1][1] am90"/>
    </vehicle>
    <vehicle id="20" depart="145.0" type="type1">
        <route edges="b22[0] b22[1] ba1[1] b1[1] a72[0] a72[1] a69 a161 a194 a91 a186 a109[0] a109[1][0]+20003 a109[1][1] a116"/>
    </vehicle>
    <vehicle id="21" depart="149.0" type="type1">
        <route edges="a20001+87[1][0] a87[1][1] a97 a42 a39 a35 a38 a50 a219"/>
    </vehicle>
    <vehicle id="22" depart="149.0" type="type1">
        <route edges="a125 b12 b56[0] b39[0] b39[1][0] b39[1][1][0] b46 a181 a18 a69 a161 a194 a91 a186 a109[0] a109[1][0]+20003 a109[1][1] a116 a46 a201 a201c"/>
    </vehicle>
    <vehicle id="23" depart="149.0" type="type1">
        <route edges="a14 a9 a211"/>
    </vehicle>
    <vehicle id="24" depart="150.0" type="type1">
        <route edges="b11[1][1] b101 b34[0] b34[1][0] b36 b39[1][1][1] b45 a67 a80 a127 a77[1][0] a77ab a77bc a77cd a53cd a82 a51 a219 a218 a36"/>
    </vehicle>
    <vehicle id="25" depart="150.0" type="type1">
        <route edges="a34 a113 a118 a65 a57[0] a57[1] a62 a159 a42 a39 a35 a38 a15 a24 a20"/>
    </vehicle>
    <vehicle id="26" depart="153.0" type="type1">
        <route edges="a204[1][0] a125 b12 b56[0] b56[1][0]"/>
    </vehicle>
    <vehicle id="28" depart="156.0" type="type2">
        <route edges="a189[0] a189[1][0]+20000 a189[1][1] a191 a17 a71 b38[0] b38[0]a b37 b26 b26.-170"/>
    </vehicle>
    <vehicle id="29" depart="158.0" type="type1">
        <route edges="a186 a109[0] a109[1][0]+20003 a109[1][1] a120 a65 a57[0] a57[1] a62 a159 a42 a39"/>
    </vehicle>
    <vehicle id="30" depart="158.0" type="type2">
        <route edges="b97 b38[1][1]a b56[1][0] b56[1][1] b5[1][0]+66 b11[1][1]"/>
    </vehicle>
    <vehicle id="31" depart="159.0" type="type1">
        <route edges="a8 a13 a104 a24 a22 a59 a53cd a53[0] a53[1][0] a79 a68 a11 b38[0] b38[0]a b37 b26 b26.-170 b18"/>
    </vehicle>
    <vehicle id="32" depart="161.0" type="type1">
        <route edges="b39[1][0] b39[1][1][0] b37 b26 b26.-170 b17[0] b30"/>
    </vehicle>
    <vehicle id="33" depart="163.0" type="type1">
        <route edges="a20001+87[1][0] a87[1][1] am90 a89[0] a20002+89[1][0] a89[1][1] a91 a186 a109[0] a109[1][0]+20003 a109[1][1]"/>
    </vehicle>
    <vehicle id="34" depart="164.0" type="type1">
        <route edges="a22 a59 a53cd a53[0] a53[1][0] a53[1][1][0] a77[1][0] a77ab a77bc a21a a21b a103 a14 a9 a211 a45 a206"/>
    </vehicle>
    <vehicle id="35" depart="165.0" type="type1">
        <route edges="a1b a1 a204a[0] a124 b12 b56[0] b56[1][0] b56[1][1]"/>
    </vehicle>
    <vehicle id="37" depart="169.0" type="type1">
        <route edges="b14 b18 b20+19a ba1[1] b1[1] a67 a80 a127 a77[1][0] a77ab a77bc a77cd a53cd a53[0] a78[1][1] a189[0] a189[1][0]+20000 a189[1][1] a188 a87[0] a20001+87[1][0] a87[1][1] a97 a42"/>
    </vehicle>
    <vehicle id="40" depart="169.0" type="type1">
        <route edges="a80 a127 a77[1][0] a77ab a77bc a77cd a53cd a53[0] a78[1][1] a189[0] a189[1][0]+20000 a189[1][1] a191 a69 a161 a122 a1b a1 a204a[0]"/>
    </vehicle>
    <vehicle id="41" depart="171.0" type="type1">
        <route edges="a89[1][1] a91 a186 a109[0] a109[1][0]+20003 a109[1][1] a116 a46 a201 a201c a204a[0] a124 b12 b56[0] b56[1][0] b56[1][1] b5[1][0]+66 b5[1][1][1] b8 b4[1][1][1]"/>
    </vehicle>
    <vehicle id="42" depart="172.0" type="type1">
        <route edges="a40 a153 a87[0] a20001+87[1][0]"/>
    </vehicle>
    <vehicle id="43" depart="180.0" type="type1">
        <route edges="ba1[1] b1[1] a67"/>
    </vehicle>
    <vehicle id="44" depart="183.0" type="type1">
        <route edges="a131 a117"/>
    </vehicle>
    <vehicle id="46" depart="185.0" type="type1">
        <route edges="b34[1][0] b36 b46 a181 a18 a69 a161 a194 a91 a186 a109[0] a109[1][0]+20003 a109[1][1] a116 a46"/>
    </vehicle>
    <vehicle id="47" depart="194.0" type="type1">
        <route edges="a120 a65 a57[0] a57[1] a62 a159 a42 a153 a87[0] a20001+87[1][0] a87[1][1] am90 a171 a161 a122 a3 a2 a4"/>
    </vehicle>
    <vehicle id="48" depart="196.0" type="type1">
        <route edges="ba1[1] b1[1] a72[0]"/>
    </vehicle>
    <vehicle id="49" depart="197.0" type="type1">
        <route edges="b7 b3[1]"/>
    </vehicle>
    <vehicle id="51" depart="201.0" type="type1">
        <route edges="b18 b20+19a ba1[1] b1[1] a67 a80 a127 a77[1][0] a77ab a77bc a77cd a53cd a53[0] a53[1][0] a79 a74"/>
    </vehicle>
    <vehicle id="52" depart="204.0" type="type1">
        <route edges="a204[1][0] a125 b12 b56[0] b56[1][0] b56[1][1] b5[1][0]+66 b11[1][1]"/>
    </vehicle>
    <vehicle id="53" depart="206.0" type="type1">
        <route edges="a153 a87[0] a20001+87[1][0] a87[1][1] am90 a171 a161 a122 a3 a2 a4 a4c"/>
    </vehicle>
    <vehicle id="55" depart="206.0" type="type1">
        <route edges="b49[0] b49[1] b55 b56[0] b39[0] b39[1][0] b39[1][1][0] b46 a181 a18 a69 a161 a122 a1b a1 a204a[0] a204b[0]"/>
    </vehicle>
    <vehicle id="56" depart="206.0" type="type1">
        <route edges="a66 a119 a116 a46 a113 a118 a65 a57[0] a57[1] a62 a159 a42 a39 a35 a38 a50 a19"/>
    </vehicle>
    <vehicle id="58" depart="209.0" type="type1">
        <route edges="a218 a38 a15 a24 a22 a59 a53cd a53[0] a53[1][0] a79 a68 a11 b38[0] b38[0]a b38[1][0] b38[1][1] b38[1][1]a b56[1][0] b56[1][1] b5[1][0]+66 b11[1][1]"/>
    </vehicle>
    <vehicle id="59" depart="210.0" type="type2">
        <route edges="am1 a21b a20 a219 a218 a38 a15 a24 a22 a59 a53cd a53[0] a53[1][0] a79 a68 a11 b38[0] b38[0]a b46 a181"/>
    </vehicle>
    <vehicle id="60" depart="212.0" type="type1">
        <route edges="b2[1][0] b24 b23 b15 b14 b18 b20+19a ba1[1] b1[1] a67 a80 a127 a77[1][0] a77ab a77bc a77cd a53cd a53[0] a53[1][0] a79 a74"/>
    </vehicle>
    <vehicle id="61" depart="215.0" type="type1">
        <route edges="b30 b31 b5[1][1][1] b16[0] b16[1] b18 b20+19a ba1[1] b1[1] a72[0]"/>
    </vehicle>
    <vehicle id="62" depart="222.0" type="type1">
        <route edges="a1 a204a[0] a124 b12 b56[0] b39[0] b39[1][0] b39[1][1][0] b39[1][1][1] b45 a67 a26"/>
    </vehicle>
    <vehicle id="63" depart="222.0" type="type1">
        <route edges="a109[0] a109[1][0]+20003 a109[1][1] a116 a46 a201 a201c a204a[0] a124 b12 b56[0] b39[0] b39[1][0] b96 b49[1] b55"/>
    </vehicle>
    <vehicle id="64" depart="224.0" type="type1">
        <route edges="b49[1] b55 b56[0] b56[1][0] b34[0] b34[1][0] b36 b38[1][0] b38[1][1]"/>
    </vehicle>
    <vehicle id="65" depart="230.0" type="type1">
        <route edges="a21a a21b a20 a219 a218 a36 a40 a41 a160 a61 a58[0] a58[1] a66 a119"/>
    </vehicle>
    <vehicle id="66" depart="232.0" type="type1">
        <route edges="b49[1] b55 b56[0] b56[1][0] b56[1][1] b5[1][0]+66"/>
    </vehicle>
    <vehicle id="67" depart="239.0" type="type1">
        <route edges="a13 a104 a16 a37 a36 a40 a41 a160 a61 a58[0] a58[1] a200 a60"/>
    </vehicle>
    <vehicle id="68" depart="239.0" type="type1">
        <route edges="a122 a1b a1 a204a[0] a124 b12 b56[0] b39[0] b39[1][0] b39[1][1][0] b39[1][1][1] b45 b2[0] b2[1][0] b2[1][1][0]"/>
    </vehicle>
    <vehicle id="70" depart="242.0" type="type1">
        <route edges="a58[1] a197 a109[0] a109[1][0]+20003 a109[1][1] a120 a65 a57[0] a57[1] a62 a159 a42 a39 a35 a38 a15 a24 a22 a59 a53cd a53[0] a78[1][1]"/>
    </vehicle>
    <vehicle id="71" depart="242.0" type="type1">
        <route edges="a204[1][0] a125 b12 b56[0] b39[0] b39[1][0] b39[1][1][0] b39[1][1][1] b45"/>
    </vehicle>
    <vehicle id="72" depart="242.0" type="type1">
        <route edges="a44 a36 a40 a41 a160 a61 a58[0] a58[1] a200"/>
    </vehicle>
    <vehicle id="73" depart="243.0" type="type1">
        <route edges="a75 a51 a19 a22 a59 a53cd a53[0] a53[1][0] a79 a68 a11 b38[0] b38[0]a b37 b26 b26.-170"/>
    </vehicle>
    <vehicle id="75" depart="245.0" type="type1">
        <route edges="b98 b34[1][0] b26 b26.-170 b15 b13[1]"/>
    </vehicle>
    <vehicle id="76" depart="247.0" type="type1">
        <route edges="a48 a42 a39 a35 a38 a15 a24 a22 a59 a53cd a53[0] a78[1][1] a189[0] a189[1][0]+20000 a189[1][1] a191 a69"/>
    </vehicle>
    <vehicle id="77" depart="247.0" type="type1">
        <route edges="a16 a37 a36 a40 a153 a87[0] a20001+87[1][0] a87[1][1] am90 a89[0] a20002+89[1][0]"/>
    </vehicle>
    <vehicle id="78" depart="248.0" type="type1">
        <route edges="a24 a20 a219 a218 a38 a15 a14 a9"/>
    </vehicle>
    <vehicle id="79" depart="261.0" type="type1">
        <route edges="a20002+89[1][0] a89[1][1] a91 a173 a62 a159 a42 a153 a87[0] a20001+87[1][0]"/>
    </vehicle>
    <vehicle id="80" depart="264.0" type="type1">
        <route edges="a124 b12 b56[0] b56[1][0] b56[1][1] b5[1][0]+66 b11[1][1] b101"/>
    </vehicle>
    <vehicle id="81" depart="270.0" type="type1">
        <route edges="a20001+87[1][0] a87[1][1] am90 a171 a161 a122 a1b a1 a204a[0] a124 b12 b50[0]"/>
    </vehicle>
    <vehicle id="83" depart="271.0" type="type1">
        <route edges="a201 a201c a204a[0] a124 b12 b56[0] b56[1][0] b56[1][1] b5[1][0]+66 b5[1][1][1] b16[0] b16[1]"/>
    </vehicle>
    <vehicle id="84" depart="272.0" type="type1">
        <route edges="a2 a202 a34 a113 a118 a65 a57[0] a57[1] a62 a159 a42 a39 a35 a38 a15 a24 a22 a59 a53cd a53[0] a78[1][1] a189[0] a189[1][0]+20000 a189[1][1] a191 a17"/>
    </vehicle>
    <vehicle id="85" depart="273.0" type="type1">
        <route edges="b5[1][0]+66 b11[1][1] b101 b34[0] b34[1][0] b36 b39[1][1][1] b45 a67 a80 a127 a77[1][0] a77ab a77bc a77cd a53cd a53[0] a78[1][1] a189[0] a189[1][0]+20000 a189[1][1] a188 a87[0]"/>
    </vehicle>
    <vehicle id="86" depart="276.0" type="type1">
        <route edges="a58[0] a58[1] a66 a119 a116 a46 a201 a201c a204a[0] a124 b12 b56[0] b56[1][0] b56[1][1] b5[1][0]+66 b33"/>
    </vehicle>
    <vehicle id="87" depart="277.0" type="type1">
        <route edges="b36 b46 a181 a18 a69 a161 a194"/>
    </vehicle>
    <vehicle id="89" depart="278.0" type="type2">
        <route edges="a44 a36 a40 a153 a87[0] a20001+87[1][0] a87[1][1] am90 a89[0] a20002+89[1][0] a89[1][1] a91 a186 a109[0] a109[1][0]+20003 a109[1][1] a120 a65 a57[0] a57[1]"/>
    </vehicle>
    <vehicle id="90" depart="280.0" type="type1">
        <route edges="b26 b26.-170 b17[0]"/>
    </vehicle>
    <vehicle id="91" depart="280.0" type="type1">
        <route edges="b96 b49[1] b55 b56[0] b39[0] b39[1][0] b39[1][1][0] b46 a181 a18 a69 a161 a122 a3 a2 a202 a34 a134 a134b"/>
    </vehicle>
    <vehicle id="94" depart="282.0" type="type1">
        <route edges="a191 a69 a161 a122 a1b a1 a204a[0] a204b[0] a54"/>
    </vehicle>
    <vehicle id="95" depart="284.0" type="type1">
        <route edges="a43[1] a201 a201c a204a[0] a124 b12 b56[0] b39[0] b39[1][0] b39[1][1][0] b39[1][1][1] b45 a67 a80 a127 a77[1][0] a77ab a77bc a21a a21b a103 a14 a9 a211"/>
    </vehicle>
    <vehicle id="96" depart="285.0" type="type2">
        <route edges="a203[0] b12 b53 b53a"/>
    </vehicle>
    <vehicle id="97" depart="286.0" type="type1">
        <route edges="a50 a19 a22 a59 a53cd a53[0] a53[1][0] a79 a68 a11 b38[0] b38[0]a b38[1][0] b38[1][1] b38[1][1]a b56[1][0] b56[1][1] b5[1][0]+66 b5[1][1][1] b8 b3[1]"/>
    </vehicle>
    <vehicle id="98" depart="288.0" type="type1">
        <route edges="a79 a74 a72[1] a69 a161 a194 a91 a186 a109[0] a109[1][0]+20003 a109[1][1] a120 a117"/>
    </vehicle>
    <vehicle id="99" depart="290.0" type="type1">
        <route edges="ba1[1] b1[1] b38[0] b38[0]a b38[1][0] b38[1][1] b38[1][1]a"/>
    </vehicle>
    <vehicle id="101" depart="292.0" type="type1">
        <route edges="b39[1][1][0] b39[1][1][1] b45 a67 a80 a127 a77[1][0] a77ab a77bc a77cd a53cd a53[0] a78[1][1] a189[0]"/>
    </vehicle>
    <vehicle id="102" depart="294.0" type="type1">
        <route edges="a61 a58[0] a58[1] a200"/>
    </vehicle>
    <vehicle id="103" depart="296.0" type="type1">
        <route edges="a40 a41 a160 a61 a58[0] a58[1] a66 a119"/>
    </vehicle>
    <vehicle id="104" depart="297.0" type="type1">
        <route edges="a36 a40 a93 a48 a42 a39 a35 a38 a15 a24 a22 a59 a53cd a53[0] a53[1][0] a79 a68 a11 b38[0] b38[0]a b38[1][0] b96"/>
    </vehicle>
    <vehicle id="105" depart="298.0" type="type1">
        <route edges="a204[1][0] a125 b12 b56[0] b56[1][0] b56[1][1] b5[1][0]+66 b33"/>
    </vehicle>
    <vehicle id="106" depart="300.0" type="type1">
        <route edges="a56a a56b a77bc a77cd a53cd a82 a51 a219 a218 a36 a40 a93 a48"/>
    </vehicle>
    <vehicle id="107" depart="302.0" type="type1">
        <route edges="b63[1] b4[0] b28 b28a b16[1] b18 b20+19a ba1[1]"/>
    </vehicle>
    <vehicle id="109" depart="303.0" type="type2">
        <route edges="a18 a17 a71 a67 a80 a127 a77[1][0] a77ab a77bc a21a a21b"/>
    </vehicle>
    <vehicle id="111" depart="307.0" type="type1">
        <route edges="a78[0] a56a a56b a77bc a77cd a53cd a53[0] a53[1][0] a79 a68 a11 b38[0] b38[0]a b37 b26 b26.-170 b17[0] b29[0] b29[1]"/>
    </vehicle>
    <vehicle id="112" depart="307.0" type="type1">
        <route edges="a119 a116 a46 a113 a118 a65 a57[0] a57[1] a62 a159 a42 a153 a87[0] a20001+87[1][0] a87[1][1] am90 a89[0] a20002+89[1][0] a89[1][1]"/>
    </vehicle>
    <vehicle id="113" depart="311.0" type="type1">
        <route edges="a67 a80 a127 a77[1][0] a77ab a77bc a77cd a53cd a53[0] a53[1][0] a79 a68 a11 b38[0] b38[0]a b38[1][0] b38[1][1] b39[1][0] b39[1][1][0]"/>
    </vehicle>
    <vehicle id="114" depart="311.0" type="type1">
        <route edges="a181 a18 a17 a71 b38[0] b38[0]a b38[1][0] b38[1][1] b38[1][1]a b56[1][0] b56[1][1] b64"/>
    </vehicle>
    <vehicle id="115" depart="312.0" type="type1">
        <route edges="a127 a77[1][0] a77ab a77bc a77cd a53cd a53[0] a78[1][1] a189[0] a189[1][0]+20000 a189[1][1] a191"/>
    </vehicle>
    <vehicle id="116" depart="312.0" type="type1">
        <route edges="a91 a186 a109[0] a109[1][0]+20003 a109[1][1] a116 a46 a201 a201c a204a[0] a124 b12 b56[0] b39[0] b39[1][0] b39[1][1][0] b37 b26 b26.-170 b17[0]"/>
    </vehicle>
    <vehicle id="117" depart="312.0" type="type1">
        <route edges="a201 a201c a204a[0] a124 b12 b56[0] b39[0] b39[1][0] b39[1][1][0] b39[1][1][1] b45 a67 a80 a127 a77[1][0] a77ab a77bc a21a a21b a103 a16"/>
    </vehicle>
    <vehicle id="119" depart="314.0" type="type1">
        <route edges="a91 a173 a62 a159 a42 a153 a87[0] a20001+87[1][0] a87[1][1] am90"/>
    </vehicle>
    <vehicle id="120" depart="315.0" type="type2">
        <route edges="a43[1] a201 a201c a204a[0] a124 b12 b56[0] b39[0] b39[1][0] b39[1][1][0] b39[1][1][1] b45 a67 a80 a127 a77[1][0] a77ab a77bc a77cd a53cd a53[0] a78[1][1] a189[0] a189[1][0]+20000 a189[1][1] a188 a87[0] a20001+87[1][0] a87[1][1] am90 a89[0] a20002+89[1][0] a89[1][1]"/>
    </vehicle>
    <vehicle id="121" depart="317.0" type="type1">
        <route edges="a72[0] a72[1] a69 a161 a122 a1b a1 a204a[0] a124 b12 b56[0] b56[1][0]"/>
    </vehicle>
    <vehicle id="122" depart="322.0" type="type1">
        <route edges="a197 a109[0] a109[1][0]+20003 a109[1][1] a116 a46 a201 a201c a204a[0] a124 b12 b56[0] b39[0] b39[1][0] b39[1][1][0] b39[1][1][1] b45 b2[0] b2[1][0] b24"/>
    </vehicle>
    <vehicle id="123" depart="324.0" type="type1">
        <route edges="a201 a201c a204a[0] a124 b12 b56[0] b39[0] b39[1][0] b39[1][1][0] b39[1][1][1] b45 a67 a80 a127 a77[1][0] a77ab a77bc a77cd a53cd a53[0] a78[1][1] a189[0] a189[1][0]+20000 a189[1][1] a188 a87[0] a20001+87[1][0] a87[1][1] a97 a42"/>
    </vehicle>
    <vehicle id="124" depart="331.0" type="type1">
        <route edges="b17[0] b17[1] b11[0] b11[1][1] b101 b34[0] b34[1][0] b36 b39[1][1][1] b45 a67 a80 a127 a77[1][0] a77ab a77bc a21a a21b"/>
    </vehicle>
    <vehicle id="125" depart="332.0" type="type1">
        <route edges="a22 a59 a53cd a53[0] a53[1][0] a79 a68 a11 b2[0]"/>
    </vehicle>
    <vehicle id="127" depart="332.0" type="type1">
        <route edges="ba1[1]"/>
    </vehicle>
    <vehicle id="128" depart="333.0" type="type1">
        <route edges="a124 b12 b56[0] b39[0] b39[1][0] b39[1][1][0] b46 a181 a18 a69 a161 a194 a91 a186 a109[0] a109[1][0]+20003 a109[1][1] a120 a65 a200"/>
    </vehicle>
    <vehicle id="129" depart="337.0" type="type1">
        <route edges="a204[1][0] a125 b12 b56[0]"/>
    </vehicle>
    <vehicle id="130" depart="337.0" type="type1">
        <route edges="b49[1] b55 b56[0] b39[0] b39[1][0] b39[1][1][0] b46 b49[0]"/>
    </vehicle>
    <vehicle id="131" depart="338.0" type="type1">
        <route edges="a34 a113 a118 a65 a57[0] a57[1] a62 a159 a42 a153 a87[0] a20001+87[1][0] a87[1][1] am90 a89[0] a20002+89[1][0] a89[1][1] a91 a186"/>
    </vehicle>
    <vehicle id="132" depart="339.0" type="type2">
        <route edges="b38[1][1]a b56[1][0] b56[1][1] b5[1][0]+66 b5[1][1][1] b16[0] b16[1] b18 b20+19a b21"/>
    </vehicle>
    <vehicle id="134" depart="340.0" type="type1">
        <route edges="b14 b18 b20+19a ba1[1] b1[1] a67 a80 a127 a77[1][0] a77ab a77bc a77cd a53cd a82 a51 a219 a218 a38 a33 a10"/>
    </vehicle>
    <vehicle id="135" depart="340.0" type="type1">
        <route edges="b38[0]a b46 a181 a18 a17 a71 a67 a80 a127 a77[1][0] a77ab a77bc a21a a21b"/>
    </vehicle>
    <vehicle id="136" depart="341.0" type="type1">
        <route edges="b16[0] b16[1] b18 b20+19a ba1[1] b1[1] b38[0] b38[0]a b38[1][0] b38[1][1] b38[1][1]a b56[1][0]"/>
    </vehicle>
    <vehicle id="137" depart="342.0" type="type1">
        <route edges="a165 a31 a113 a118 a65 a57[0] a57[1] a62 a159"/>
    </vehicle>
    <vehicle id="138" depart="342.0" type="type1">
        <route edges="a15 a24 a22 a59 a53cd a53[0] a78[1][1]"/>
    </vehicle>
    <vehicle id="139" depart="343.0" type="type1">
        <route edges="a204b[0] a204[1][0] a125 b12 b56[0] b39[0] b39[1][0] b39[1][1][0] b39[1][1][1] b45 a67 a80 a127 a77[1][0] a77ab a77bc a77cd a53cd a53[0] a78[1][1] a189[0] a189[1][0]+20000 a189[1][1] a188 a87[0] a20001+87[1][0] a87[1][1] a97"/>
    </vehicle>
    <vehicle id="140" depart="343.0" type="type1">
        <route edges="b23 b15 b14 b18 b20+19a ba1[1] b1[1] a72[0] a72[1] a69 a161 a122 a3 a2"/>
    </vehicle>
    <vehicle id="141" depart="344.0" type="type1">
        <route edges="b11[1][1] b101 b34[0] b34[1][0] b36 b46 a181 a18 a69 a161 a122 a1b a1 a204a[0] a204b[0]"/>
    </vehicle>
    <vehicle id="142" depart="348.0" type="type2">
        <route edges="a62 a159 a42 a153 a87[0] a20001+87[1][0] a87[1][1] am90 a171 a161 a122 a1b a1 a204a[0] a124 b12 b50[0]"/>
    </vehicle>
    <vehicle id="143" depart="348.0" type="type1">
        <route edges="b39[1][1][0] b46 a181 a18 a69 a161 a122 a3 a2 a202 a34 a134"/>
    </vehicle>
    <vehicle id="144" depart="350.0" type="type1">
        <route edges="a44 a36 a40 a41 a160 a61 a58[0] a58[1] a66 a117 a209"/>
    </vehicle>
    <vehicle id="145" depart="352.0" type="type2">
        <route edges="a1 a204a[0] a124 b12 b56[0] b39[0] b39[1][0] b39[1][1][0] b39[1][1][1] b45 b2[0] b2[1][0] b2[1][1][0] b2[1][1][1] b2[1][1][1]b"/>
    </vehicle>
    <vehicle id="146" depart="355.0" type="type1">
        <route edges="b11[1][1] b101 b34[0] b34[1][0] b36 b46 a181 a18 a69 a161 a122 a1b a1 a204a[0]"/>
    </vehicle>
    <vehicle id="147" depart="357.0" type="type1">
        <route edges="b28 b28a b16[1] b18 b20+19a ba1[1] b1[1] a67 a80 a127 a77[1][0] a77ab a77bc a77cd a53cd a53[0] a78[1][1]"/>
    </vehicle>
    <vehicle id="148" depart="359.0" type="type1">
        <route edges="a45 a44 a38 a50 a19 a103"/>
    </vehicle>
    <vehicle id="149" depart="360.0" type="type1">
        <route edges="a125 b12 b56[0] b39[0] b39[1][0] b96 b49[1]"/>
    </vehicle>
    <vehicle id="150" depart="361.0" type="type1">
        <route edges="b51 b56[0] b39[0] b39[1][0] b39[1][1][0] b39[1][1][1] b45 a67 a80 a127 a77[1][0] a77[1][1]"/>
    </vehicle>
    <vehicle id="151" depart="362.0" type="type2">
        <route edges="b38[1][1]a b56[1][0] b34[0] b34[1][0] b36 b39[1][1][1] b45 a67 a80 a127 a77[1][0] a77ab a77bc a77cd a53cd a53[0] a78[1][1] a189[0] a189[1][0]+20000 a189[1][1] a188 a87[0] a20001+87[1][0] a87[1][1] am90 a89[0] a20002+89[1][0] a89[1][1]"/>
    </vehicle>
    <vehicle id="152" depart="362.0" type="type1">
        <route edges="a173 a62 a159 a42 a153 a87[0] a20001+87[1][0] a87[1][1] am90 a171 a161"/>
    </vehicle>
    <vehicle id="153" depart="362.0" type="type1">
        <route edges="a21a a21b a20 a219 a218 a38 a15 a24 a22 a59 a53cd a53[0] a53[1][0] a79 a68 a11 b38[0] b38[0]a b38[1][0] b38[1][1] b38[1][1]a b56[1][0] b56[1][1] b5[1][0]+66 b5[1][1][1] b8 b4[1][1][1]"/>
    </vehicle>
    <vehicle id="154" depart="364.0" type="type1">
        <route edges="b34[1][1] b2[1][0] b24 b23 b17[0] b17[1] b8 b3[1]"/>
    </vehicle>
    <vehicle id="155" depart="365.0" type="type1">
        <route edges="b50[1]a a181 a18 a17 a71 a67 a80 a127 a77[1][0] a77ab a77bc a21a a21b a20"/>
    </vehicle>
    <vehicle id="156" depart="365.0" type="type1">
        <route edges="a203[0] b12 b56[0] b39[0] b39[1][0] b39[1][1][0] b39[1][1][1] b45 a67 a80 a127 a77[1][0] a77ab a77bc a21a a21b a103 a14"/>
    </vehicle>
    <vehicle id="157" depart="369.0" type="type1">
        <route edges="b31 b11[1][1] b101 b34[0] b34[1][0] b36 b46 b49[0] b49[1]"/>
    </vehicle>
    <vehicle id="158" depart="370.0" type="type1">
        <route edges="a41 a160 a61 a58[0] a58[1] a66 a119 a116 a46 a201 a201c a204a[0] a124 b12 b56[0] b56[1][0] b56[1][1] b5[1][0]+66 b5[1][1][1] b8 b10"/>
    </vehicle>
    <vehicle id="159" depart="371.0" type="type1">
        <route edges="a18 a17 a71 b38[0] b38[0]a b38[1][0] b96 b49[1] b55 b56[0]"/>
    </vehicle>
    <vehicle id="160" depart="371.0" type="type1">
        <route edges="b45 b2[0] b2[1][0] b24 b23 b17[0] b17[1] b11[0] b11[1][1] b70"/>
    </vehicle>
    <vehicle id="161" depart="372.0" type="type1">
        <route edges="b37 b26 b26.-170 b18 b20+19a ba1[1] b1[1] b38[0] b38[0]a b46 b49[0]"/>
    </vehicle>
    <vehicle id="162" depart="372.0" type="type2">
        <route edges="a109[1][0]+20003 a109[1][1] a116 a46 a201 a201c a204a[0] a124 b12 b56[0] b39[0] b39[1][0] b39[1][1][0] b37 b26 b26.-170 b15 b13[1] b4[0] b28"/>
    </vehicle>
    <vehicle id="163" depart="373.0" type="type1">
        <route edges="a224[0] a224[1] b49[0] b49[1] b55 b56[0]"/>
    </vehicle>
    <vehicle id="164" depart="374.0" type="type2">
        <route edges="b34[1][2] b26 b26.-170 b17[0] b17[1] b8 b3[1] b3[1]b"/>
    </vehicle>
    <vehicle id="165" depart="375.0" type="type1">
        <route edges="b37 b26 b26.-170 b18 b20+19a ba1[1] b1[1] a72[0] a72[1] a69 a161 a122 a1b a1 a204a[0] a204b[0]"/>
    </vehicle>
    <vehicle id="166" depart="375.0" type="type1">
        <route edges="b34[0] b34[1][0] b36 b39[1][1][1] b45 a67 a80 a127 a77[1][0] a77ab a77bc a77cd a53cd a82 a51 a219 a218 a36 a40 a153"/>
    </vehicle>
    <vehicle id="167" depart="376.0" type="type1">
        <route edges="b46 a181 a18 a17 a71 b2[0] b34[1][2] b36 b39[1][1][1]"/>
    </vehicle>
    <vehicle id="170" depart="377.0" type="type2">
        <route edges="b34[1][1] b2[1][0] b24 b23 b15 b14 b18 b20+19a ba1[1] b1[1] a72[0] a72[1] a69 a161 a194 a91 a186 a109[0] a109[1][0]+20003 a109[1][1] a116 a46 a201"/>
    </vehicle>
    <vehicle id="171" depart="381.0" type="type1">
        <route edges="a109[1][0]+20003 a109[1][1] a120 a65 a197"/>
    </vehicle>
    <vehicle id="172" depart="381.0" type="type1">
        <route edges="a220b a220 a19 a22 a59 a53cd a53[0] a53[1][0] a79 a68 a11 b38[0] b38[0]a b38[1][0] b38[1][1] b38[1][1]a b56[1][0] b56[1][1] b5[1][0]+66 b5[1][1][1] b8 b3[1] b3[1]b"/>
    </vehicle>
    <vehicle id="173" depart="382.0" type="type2">
        <route edges="b67 b31 b11[1][1] b101 b34[0] b34[1][0] b36 b39[1][1][1] b45 a67 a80 a127 a77[1][0] a77ab a77bc a21a a21b a103 a14 a9 a211"/>
    </vehicle>
    <vehicle id="176" depart="383.0" type="type1">
        <route edges="b5[1][1][1] b16[0] b16[1] b18 b20+19a ba1[1] b1[1] a72[0] a72[1] a69 a161 a194 a91 a173 a62 a159"/>
    </vehicle>
    <vehicle id="178" depart="383.0" type="type2">
        <route edges="b67 b31 b11[1][1] b101 b34[0] b34[1][0] b36 b46 a181 a18 a69 a161 a122 a1b a1 a204a[0] a204b[0]"/>
    </vehicle>
    <vehicle id="179" depart="384.0" type="type1">
        <route edges="a153 a87[0] a20001+87[1][0] a87[1][1] am90 a171 a161 a122 a3 a2 a4 a4c"/>
    </vehicle>
    <vehicle id="181" depart="388.0" type="type1">
        <route edges="am1 a21b a20 a219 a218 a38 a15 a24 a22 a59 a53cd a53[0] a78[1][1] a189[0] a189[1][0]+20000 a189[1][1] a191 a17 a71 a67"/>
    </vehicle>
    <vehicle id="182" depart="388.0" type="type1">
        <route edges="a38 a15 a24 a22 a59 a53cd a53[0] a78[1][1] a189[0] a189[1][0]+20000 a189[1][1] a188 a87[0] a20001+87[1][0] a87[1][1]"/>
    </vehicle>
    <vehicle id="184" depart="388.0" type="type1">
        <route edges="a1 a204a[0] a124 b12 b56[0] b39[0] b39[1][0] b96 b49[1] b55"/>
    </vehicle>
    <vehicle id="186" depart="389.0" type="type1">
        <route edges="b28a b16[1]"/>
    </vehicle>
    <vehicle id="187" depart="389.0" type="type1">